data_MIL-140-BDC
_audit_creation_date              2024-01-10
_audit_creation_method            'Materials Studio'
_symmetry_space_group_name_H-M    'C2/C'
_symmetry_Int_Tables_number       15
_symmetry_cell_setting            monoclinic
loop_
_symmetry_equiv_pos_as_xyz
  x,y,z
  -x,y,-z+1/2
  -x,-y,-z
  x,-y,z+1/2
  x+1/2,y+1/2,z
  -x+1/2,y+1/2,-z+1/2
  -x+1/2,-y+1/2,-z
  x+1/2,-y+1/2,z+1/2
_cell_length_a                    24.4243
_cell_length_b                    11.1795
_cell_length_c                    7.8022
_cell_angle_alpha                 90.0000
_cell_angle_beta                  103.8610
_cell_angle_gamma                 90.0000
loop_
_atom_site_label
_atom_site_type_symbol
_atom_site_fract_x
_atom_site_fract_y
_atom_site_fract_z
_atom_site_U_iso_or_equiv
_atom_site_adp_type
_atom_site_occupancy
Zr1    Zr   -0.05680  -1.02492  -0.67787   0.08000  Uiso   1.00
O2     O    -0.04242  -0.84227  -0.71483   0.08000  Uiso   0.50
O3     O    -0.11842  -1.12133  -0.58287   0.08000  Uiso   1.00
O4     O    -0.02911  -0.94060  -0.41760   0.08000  Uiso   1.00
O5     O    -0.04006  -0.21017  -0.69913   0.08000  Uiso   1.00
O6     O    -0.13515  -0.96950  -0.83804   0.08000  Uiso   1.00
C7     C    -0.14792  -1.10432  -0.46819   0.08000  Uiso   1.00
C8     C    -0.20065  -1.17776  -0.48598   0.08000  Uiso   1.00
C9     C    -0.21624  -1.26461  -0.61991   0.08000  Uiso   1.00
C10    C    -0.23529  -1.16451  -0.36624   0.08000  Uiso   1.00
C11    C     0.04562  -0.46385  -0.78475   0.08000  Uiso   1.00
C12    C     0.04569  -0.58938  -0.78427   0.08000  Uiso   1.00
H13    H    -0.19081  -1.27846  -0.71442   0.00000  Uiso   1.00
H14    H    -0.22496  -1.09923  -0.26085   0.00000  Uiso   1.00
H15    H     0.08149  -0.41750  -0.81234   0.00000  Uiso   1.00
H16    H     0.08163  -0.63565  -0.81150   0.00000  Uiso   1.00
C17    C     0.00000  -0.78804  -0.75000   0.08000  Uiso   1.00
C18    C     0.00000  -0.26536  -0.75000   0.08000  Uiso   1.00
C19    C     0.00000  -0.39914  -0.75000   0.08000  Uiso   1.00
C20    C     0.00000  -0.65416  -0.75000   0.08000  Uiso   1.00
loop_
_geom_bond_atom_site_label_1
_geom_bond_atom_site_label_2
_geom_bond_distance
_geom_bond_site_symmetry_2
_ccdc_geom_bond_type
Zr1    O2      2.104   .     S
Zr1    O3      2.124   .     S
Zr1    O4      2.194   .     S
Zr1    O5      2.125   1_545 S
Zr1    O6      2.112   .     S
Zr1    O4      2.087   3_534 S
Zr1    O4      2.170   4_534 S
O2     C17     1.286   .     A
O3     C7      1.290   .     A
O4     Zr1     2.087   3_534 S
O4     Zr1     2.170   4_535 S
O5     Zr1     2.125   1_565 S
O5     C18     1.297   .     A
O6     C7      1.288   4_534 A
C7     C8      1.505   .     S
C7     O6      1.288   4_535 A
C8     C9      1.410   .     A
C8     C10     1.410   .     A
C9     C10     1.407   7_424 A
C9     H13     1.083   .     S
C10    C9      1.407   7_424 A
C10    H14     1.083   .     S
C11    C12     1.403   .     A
C11    C19     1.408   .     A
C11    H15     1.083   .     S
C12    C20     1.409   .     A
C12    H16     1.083   .     S
C17    O2      1.286   2_553 A
C17    C20     1.497   .     S
C18    O5      1.297   2_553 A
C18    C19     1.496   .     S
C19    C11     1.408   2_553 A
C20    C12     1.409   2_553 A
