data_MOF-808
_audit_creation_date              2024-01-10
_audit_creation_method            'Materials Studio'
_symmetry_space_group_name_H-M    'FD-3M'
_symmetry_Int_Tables_number       227
_symmetry_cell_setting            cubic
loop_
_symmetry_equiv_pos_as_xyz
  x,y,z
  -x,-y+1/2,z+1/2
  -x+1/2,y+1/2,-z
  x+1/2,-y,-z+1/2
  z,x,y
  z+1/2,-x,-y+1/2
  -z,-x+1/2,y+1/2
  -z+1/2,x+1/2,-y
  y,z,x
  -y+1/2,z+1/2,-x
  y+1/2,-z,-x+1/2
  -y,-z+1/2,x+1/2
  y+3/4,x+1/4,-z+3/4
  -y+1/4,-x+1/4,-z+1/4
  y+1/4,-x+3/4,z+3/4
  -y+3/4,x+3/4,z+1/4
  x+3/4,z+1/4,-y+3/4
  -x+3/4,z+3/4,y+1/4
  -x+1/4,-z+1/4,-y+1/4
  x+1/4,-z+3/4,y+3/4
  z+3/4,y+1/4,-x+3/4
  z+1/4,-y+3/4,x+3/4
  -z+3/4,y+3/4,x+1/4
  -z+1/4,-y+1/4,-x+1/4
  -x+1/4,-y+1/4,-z+1/4
  x+1/4,y+3/4,-z+3/4
  x+3/4,-y+3/4,z+1/4
  -x+3/4,y+1/4,z+3/4
  -z+1/4,-x+1/4,-y+1/4
  -z+3/4,x+1/4,y+3/4
  z+1/4,x+3/4,-y+3/4
  z+3/4,-x+3/4,y+1/4
  -y+1/4,-z+1/4,-x+1/4
  y+3/4,-z+3/4,x+1/4
  -y+3/4,z+1/4,x+3/4
  y+1/4,z+3/4,-x+3/4
  -y+1/2,-x,z+1/2
  y,x,z
  -y,x+1/2,-z+1/2
  y+1/2,-x+1/2,-z
  -x+1/2,-z,y+1/2
  x+1/2,-z+1/2,-y
  x,z,y
  -x,z+1/2,-y+1/2
  -z+1/2,-y,x+1/2
  -z,y+1/2,-x+1/2
  z+1/2,-y+1/2,-x
  z,y,x
  x,y+1/2,z+1/2
  -x,-y,z
  -x+1/2,y,-z+1/2
  x+1/2,-y+1/2,-z
  z,x+1/2,y+1/2
  z+1/2,-x+1/2,-y
  -z,-x,y
  -z+1/2,x,-y+1/2
  y,z+1/2,x+1/2
  -y+1/2,z,-x+1/2
  y+1/2,-z+1/2,-x
  -y,-z,x
  y+3/4,x+3/4,-z+1/4
  -y+1/4,-x+3/4,-z+3/4
  y+1/4,-x+1/4,z+1/4
  -y+3/4,x+1/4,z+3/4
  x+3/4,z+3/4,-y+1/4
  -x+3/4,z+1/4,y+3/4
  -x+1/4,-z+3/4,-y+3/4
  x+1/4,-z+1/4,y+1/4
  z+3/4,y+3/4,-x+1/4
  z+1/4,-y+1/4,x+1/4
  -z+3/4,y+1/4,x+3/4
  -z+1/4,-y+3/4,-x+3/4
  -x+1/4,-y+3/4,-z+3/4
  x+1/4,y+1/4,-z+1/4
  x+3/4,-y+1/4,z+3/4
  -x+3/4,y+3/4,z+1/4
  -z+1/4,-x+3/4,-y+3/4
  -z+3/4,x+3/4,y+1/4
  z+1/4,x+1/4,-y+1/4
  z+3/4,-x+1/4,y+3/4
  -y+1/4,-z+3/4,-x+3/4
  y+3/4,-z+1/4,x+3/4
  -y+3/4,z+3/4,x+1/4
  y+1/4,z+1/4,-x+1/4
  -y+1/2,-x+1/2,z
  y,x+1/2,z+1/2
  -y,x,-z
  y+1/2,-x,-z+1/2
  -x+1/2,-z+1/2,y
  x+1/2,-z,-y+1/2
  x,z+1/2,y+1/2
  -x,z,-y
  -z+1/2,-y+1/2,x
  -z,y,-x
  z+1/2,-y,-x+1/2
  z,y+1/2,x+1/2
  x+1/2,y,z+1/2
  -x+1/2,-y+1/2,z
  -x,y+1/2,-z+1/2
  x,-y,-z
  z+1/2,x,y+1/2
  z,-x,-y
  -z+1/2,-x+1/2,y
  -z,x+1/2,-y+1/2
  y+1/2,z,x+1/2
  -y,z+1/2,-x+1/2
  y,-z,-x
  -y+1/2,-z+1/2,x
  y+1/4,x+1/4,-z+1/4
  -y+3/4,-x+1/4,-z+3/4
  y+3/4,-x+3/4,z+1/4
  -y+1/4,x+3/4,z+3/4
  x+1/4,z+1/4,-y+1/4
  -x+1/4,z+3/4,y+3/4
  -x+3/4,-z+1/4,-y+3/4
  x+3/4,-z+3/4,y+1/4
  z+1/4,y+1/4,-x+1/4
  z+3/4,-y+3/4,x+1/4
  -z+1/4,y+3/4,x+3/4
  -z+3/4,-y+1/4,-x+3/4
  -x+3/4,-y+1/4,-z+3/4
  x+3/4,y+3/4,-z+1/4
  x+1/4,-y+3/4,z+3/4
  -x+1/4,y+1/4,z+1/4
  -z+3/4,-x+1/4,-y+3/4
  -z+1/4,x+1/4,y+1/4
  z+3/4,x+3/4,-y+1/4
  z+1/4,-x+3/4,y+3/4
  -y+3/4,-z+1/4,-x+3/4
  y+1/4,-z+3/4,x+3/4
  -y+1/4,z+1/4,x+1/4
  y+3/4,z+3/4,-x+1/4
  -y,-x,z
  y+1/2,x,z+1/2
  -y+1/2,x+1/2,-z
  y,-x+1/2,-z+1/2
  -x,-z,y
  x,-z+1/2,-y+1/2
  x+1/2,z,y+1/2
  -x+1/2,z+1/2,-y
  -z,-y,x
  -z+1/2,y+1/2,-x
  z,-y+1/2,-x+1/2
  z+1/2,y,x+1/2
  x+1/2,y+1/2,z
  -x+1/2,-y,z+1/2
  -x,y,-z
  x,-y+1/2,-z+1/2
  z+1/2,x+1/2,y
  z,-x+1/2,-y+1/2
  -z+1/2,-x,y+1/2
  -z,x,-y
  y+1/2,z+1/2,x
  -y,z,-x
  y,-z+1/2,-x+1/2
  -y+1/2,-z,x+1/2
  y+1/4,x+3/4,-z+3/4
  -y+3/4,-x+3/4,-z+1/4
  y+3/4,-x+1/4,z+3/4
  -y+1/4,x+1/4,z+1/4
  x+1/4,z+3/4,-y+3/4
  -x+1/4,z+1/4,y+1/4
  -x+3/4,-z+3/4,-y+1/4
  x+3/4,-z+1/4,y+3/4
  z+1/4,y+3/4,-x+3/4
  z+3/4,-y+1/4,x+3/4
  -z+1/4,y+1/4,x+1/4
  -z+3/4,-y+3/4,-x+1/4
  -x+3/4,-y+3/4,-z+1/4
  x+3/4,y+1/4,-z+3/4
  x+1/4,-y+1/4,z+1/4
  -x+1/4,y+3/4,z+3/4
  -z+3/4,-x+3/4,-y+1/4
  -z+1/4,x+3/4,y+3/4
  z+3/4,x+1/4,-y+3/4
  z+1/4,-x+1/4,y+1/4
  -y+3/4,-z+3/4,-x+1/4
  y+1/4,-z+1/4,x+1/4
  -y+1/4,z+3/4,x+3/4
  y+3/4,z+1/4,-x+3/4
  -y,-x+1/2,z+1/2
  y+1/2,x+1/2,z
  -y+1/2,x,-z+1/2
  y,-x,-z
  -x,-z+1/2,y+1/2
  x,-z,-y
  x+1/2,z+1/2,y
  -x+1/2,z,-y+1/2
  -z,-y+1/2,x+1/2
  -z+1/2,y,-x+1/2
  z,-y,-x
  z+1/2,y+1/2,x
_cell_length_a                    35.1364
_cell_length_b                    35.1364
_cell_length_c                    35.1364
_cell_angle_alpha                 90.0000
_cell_angle_beta                  90.0000
_cell_angle_gamma                 90.0000
loop_
_atom_site_label
_atom_site_type_symbol
_atom_site_fract_x
_atom_site_fract_y
_atom_site_fract_z
_atom_site_U_iso_or_equiv
_atom_site_adp_type
_atom_site_occupancy
O1     O     0.42457   0.47509   0.62171   0.02343  Uani   1.00
O6A    O     0.40984   0.46036   0.69149   0.05767  Uani   0.83
Zr1    Zr    0.41997   0.41997   0.64718   0.01907  Uani   1.00
O3     O     0.38662   0.38662   0.68255   0.01833  Uani   0.50
H3A    H     0.39200   0.39200   0.70962   0.02200  Uiso   0.50
O5     O     0.40938   0.40938   0.59062   0.01800  Uani   0.50
H5     H     0.42555   0.42555   0.57445   0.02200  Uiso   0.50
C2     C     0.42145   0.52868   0.57855   0.02467  Uani   1.00
C1     C     0.40670   0.49093   0.59330   0.02193  Uani   1.00
C3     C     0.45428   0.54572   0.59467   0.02600  Uani   1.00
H3     H     0.46758   0.53242   0.61907   0.03100  Uiso   1.00
C4     C     0.37500   0.46288   0.71288   0.11000  Uani   0.83
H4     H     0.37500   0.48520   0.73520   0.13200  Uiso   0.83
loop_
_atom_site_aniso_label
_atom_site_aniso_U_11
_atom_site_aniso_U_22
_atom_site_aniso_U_33
_atom_site_aniso_U_12
_atom_site_aniso_U_13
_atom_site_aniso_U_23
O1        0.02380   0.02410   0.02240  -0.00540  -0.00330   0.00790
O6A       0.11400   0.03400   0.02500   0.01000   0.00000  -0.00700
Zr1       0.01840   0.01840   0.02040  -0.00280   0.00227   0.00227
O3        0.01900   0.01900   0.01700  -0.00900  -0.00400  -0.00400
O5        0.01800   0.01800   0.01800  -0.00300   0.00300   0.00300
C2        0.02400   0.02600   0.02400  -0.00710  -0.00400   0.00710
C1        0.01940   0.02700   0.01940  -0.00450   0.00200   0.00450
C3        0.02900   0.02900   0.02000  -0.00300  -0.00620   0.00620
C4        0.15000   0.09000   0.09000  -0.02200   0.02200  -0.04200
loop_
_geom_bond_atom_site_label_1
_geom_bond_atom_site_label_2
_geom_bond_distance
_geom_bond_site_symmetry_2
_ccdc_geom_bond_type
O1     Zr1     2.140   .     S
O1     C1      1.304   .     A
O6A    Zr1     2.137   .     S
O6A    C4      1.439   .     S
Zr1    O1      2.140   38    S
Zr1    O6A     2.137   38    S
Zr1    O5      2.056   .     S
Zr1    O3      2.071   .     S
Zr1    O3      2.070   18_545 S
Zr1    O3      2.070   32_455 S
O3     H3A     0.988   .     S
O3     Zr1     2.070   18_545 S
O3     Zr1     2.070   32_455 S
O5     Zr1     2.056   94_656 S
O5     Zr1     2.056   107_566 S
O5     H5      0.984   .     S
C2     C3      1.418   .     A
C2     C3      1.418   55_665 A
C2     C1      1.515   .     S
C1     O1      1.304   94_656 A
C3     C2      1.418   133_665 A
C3     H3      1.083   .     S
C4     O6A     1.439   18_545 S
C4     H4      1.109   .     S
