data_Zr12-BPDC
_audit_creation_date              2024-01-10
_audit_creation_method            'Materials Studio'
_symmetry_space_group_name_H-M    'P63/MMC'
_symmetry_Int_Tables_number       194
_symmetry_cell_setting            hexagonal
loop_
_symmetry_equiv_pos_as_xyz
  x,y,z
  -y,x-y,z
  -x+y,-x,z
  -x,-y,z+1/2
  y,-x+y,z+1/2
  x-y,x,z+1/2
  y,x,-z
  x-y,-y,-z
  -x,-x+y,-z
  -y,-x,-z+1/2
  -x+y,y,-z+1/2
  x,x-y,-z+1/2
  -x,-y,-z
  y,-x+y,-z
  x-y,x,-z
  x,y,-z+1/2
  -y,x-y,-z+1/2
  -x+y,-x,-z+1/2
  -y,-x,z
  -x+y,y,z
  x,x-y,z
  y,x,z+1/2
  x-y,-y,z+1/2
  -x,-x+y,z+1/2
_cell_length_a                    18.9500
_cell_length_b                    18.9500
_cell_length_c                    43.9790
_cell_angle_alpha                 90.0000
_cell_angle_beta                  90.0000
_cell_angle_gamma                 120.0000
loop_
_atom_site_label
_atom_site_type_symbol
_atom_site_fract_x
_atom_site_fract_y
_atom_site_fract_z
_atom_site_U_iso_or_equiv
_atom_site_adp_type
_atom_site_occupancy
O1     O     0.45002   0.29243   0.34633   0.26000  Uiso   0.50
O2     O     0.63411   0.51404   0.30238   0.25000  Uiso   0.50
O3     O     0.53959   0.33831   0.39257   0.69000  Uiso   0.50
C4     C     0.38600   0.48714   0.55475   1.20000  Uiso   0.50
C5     C     0.41027   0.46266   0.52845   1.20000  Uiso   0.50
C6     C     0.56439   0.67137   0.67556   0.13000  Uiso   0.50
C7     C     0.69958   0.70727   0.65158   0.28000  Uiso   0.50
C8     C     0.63754   0.66484   0.30031   0.22000  Uiso   0.50
C9     C     0.63802   0.73915   0.30017   0.32000  Uiso   0.50
C10    C     0.29225   0.22607   0.65161   0.43000  Uiso   0.50
C11    C     0.64377   0.67204   0.67557   0.18000  Uiso   0.50
C12    C     0.67301   0.87688   0.32426   0.21000  Uiso   0.50
H13    H     0.32680   0.44593   0.56441   0.00000  Uiso   1.00
H14    H     0.36738   0.40341   0.51964   0.00000  Uiso   1.00
H15    H     0.60993   0.62377   0.28127   0.00000  Uiso   1.00
H16    H     0.61025   0.75007   0.28074   0.00000  Uiso   1.00
H17    H     0.73460   0.68582   0.36747   0.00000  Uiso   1.00
H18    H     0.73592   0.81283   0.36773   0.00000  Uiso   1.00
Zr19   Zr    0.55482   0.27741   0.35294   0.73000  Uiso   1.00
O20    O     0.53461   0.26730   0.30424   0.11000  Uiso   1.00
Zr21   Zr    0.60810   0.39190   0.28834   0.67000  Uiso   1.00
O22    O     0.60033   0.39967   0.33640   0.10000  Uiso   1.00
C23    C     0.41031   0.58969   0.59622   1.20000  Uiso   1.00
C24    C     0.43676   0.56324   0.56833   1.20000  Uiso   1.00
C25    C     0.51323   0.48677   0.48563   1.40000  Uiso   1.00
O26    O     0.63882   0.47516   0.25000   0.62000  Uiso   1.00
O27    O     0.66667   0.33333   0.37711   0.76000  Uiso   1.00
O28    O     0.66667   0.33333   0.27402   0.22000  Uiso   1.00
loop_
_geom_bond_atom_site_label_1
_geom_bond_atom_site_label_2
_geom_bond_distance
_geom_bond_site_symmetry_2
_ccdc_geom_bond_type
O1     Zr19    2.162   .     S
O1     C6      1.288   13_666 A
O2     Zr21    2.200   .     S
O2     C6      1.295   7_556 A
O3     Zr19    2.188   .     S
O3     C23     1.308   7_556 A
C4     C5      1.406   .     A
C4     C24     1.405   .     A
C4     H13     1.083   .     S
C5     C25     1.419   7_556 A
C5     H14     1.076   .     S
C6     C11     1.498   .     S
C6     O1      1.288   13_666 A
C6     O2      1.295   7_556 A
C7     C11     1.404   .     A
C7     C10     1.405   19_665 A
C7     H17     1.083   7_556 S
C8     C9      1.404   .     A
C8     C11     1.405   7_556 A
C8     H15     1.083   .     S
C9     C12     1.419   21_565 A
C9     H16     1.076   .     S
C10    C7      1.405   19_665 A
C10    C12     1.419   9_656 A
C10    H18     1.076   13_666 S
C11    C8      1.405   7_556 A
C12    C9      1.419   21_565 A
C12    C10     1.419   9_666 A
C12    C12     1.530   21_565 S
H17    C7      1.083   7_556 S
H18    C10     1.076   13_666 S
Zr19   O1      2.162   21    S
Zr19   O3      2.188   21    S
Zr19   O20     2.167   .     S
Zr19   O22     2.155   .     S
Zr19   O22     2.155   2_655 S
Zr19   O27     2.121   .     S
Zr19   Zr19    3.179   2_655 S
Zr19   Zr19    3.179   3_665 S
O20    Zr21    2.171   .     S
O20    Zr21    2.171   2_655 S
Zr21   O2      2.200   19_665 S
Zr21   O20     2.171   3_665 S
Zr21   O22     2.129   .     S
Zr21   O26     2.180   .     S
Zr21   O26     2.180   10_665 S
Zr21   O28     2.023   .     S
Zr21   Zr21    3.330   2_655 S
Zr21   Zr21    3.330   3_665 S
Zr21   Zr21    3.373   10_665 S
O22    Zr19    2.155   3_665 S
C23    C24     1.503   .     S
C23    O3      1.308   7_556 A
C23    O3      1.308   13_666 A
C24    C4      1.405   19_665 A
C25    C5      1.419   7_556 A
C25    C5      1.419   13_666 A
C25    C25     1.534   7_556 S
O26    Zr21    2.180   10_665 S
O27    Zr19    2.121   2_655 S
O27    Zr19    2.121   3_665 S
O28    Zr21    2.023   2_655 S
O28    Zr21    2.023   3_665 S
