data_MIL-96
_audit_creation_date              2024-01-10
_audit_creation_method            'Materials Studio'
_symmetry_space_group_name_H-M    'P3'
_symmetry_Int_Tables_number       143
_symmetry_cell_setting            trigonal
loop_
_symmetry_equiv_pos_as_xyz
  x,y,z
  -y,x-y,z
  -x+y,-x,z
_cell_length_a                    14.2074
_cell_length_b                    14.2074
_cell_length_c                    31.2302
_cell_angle_alpha                 90.0000
_cell_angle_beta                  90.0000
_cell_angle_gamma                 120.0000
loop_
_atom_site_label
_atom_site_type_symbol
_atom_site_fract_x
_atom_site_fract_y
_atom_site_fract_z
_atom_site_U_iso_or_equiv
_atom_site_adp_type
_atom_site_occupancy
O1     O     0.95051   0.38780   0.46471   0.06033  Uani   1.00
O2     O     0.99546   0.16009   0.29206   0.02699  Uani   1.00
O3     O     0.07537   0.44599   0.41184   0.02713  Uani   1.00
C4     C     0.93419   0.23714   0.36598   0.03296  Uani   1.00
C5     C     0.91078   0.26461   0.40654   0.03791  Uani   1.00
C6     C     0.98437   0.37243   0.42869   0.03463  Uani   1.00
H7     H     0.70907   0.70395   0.65129   0.00000  Uiso   1.00
H8     H     0.82090   0.64284   0.66061   0.00000  Uiso   1.00
O9     O     0.04701   0.61177   0.96540   0.06033  Uani   1.00
O10    O     0.00601   0.84060   0.79285   0.02699  Uani   1.00
O11    O     0.92471   0.55590   0.91128   0.02713  Uani   1.00
C12    C     0.06397   0.77208   0.87024   0.03296  Uani   1.00
C13    C     0.08914   0.73860   0.90885   0.03791  Uani   1.00
C14    C     0.01461   0.62899   0.92942   0.03463  Uani   1.00
H15    H     0.28889   0.29555   0.15078   0.00000  Uiso   1.00
H16    H     0.19258   0.51114   0.21412   0.00000  Uiso   1.00
O17    O     0.38745   0.94979   0.53514   0.06033  Uani   1.00
O18    O     0.16192   0.99474   0.70963   0.02699  Uani   1.00
O19    O     0.44580   0.07548   0.58768   0.02713  Uani   1.00
C20    C     0.23753   0.93394   0.63442   0.03296  Uani   1.00
C21    C     0.26418   0.91099   0.59351   0.03791  Uani   1.00
C22    C     0.37213   0.98422   0.57105   0.03463  Uani   1.00
H23    H     0.70506   0.71104   0.34924   0.00000  Uiso   1.00
H24    H     0.48881   0.80791   0.28467   0.00000  Uiso   1.00
H25    H     0.17927   0.35749   0.33809   0.00000  Uiso   1.00
O26    O     0.61264   0.05261   0.03570   0.06033  Uani   1.00
O27    O     0.83702   0.00573   0.20948   0.02699  Uani   1.00
O28    O     0.55450   0.92405   0.08727   0.02713  Uani   1.00
C29    C     0.76232   0.06532   0.13417   0.03296  Uani   1.00
C30    C     0.73528   0.08906   0.09357   0.03791  Uani   1.00
C31    C     0.62784   0.01638   0.07116   0.03463  Uani   1.00
H32    H     0.27524   0.26508   0.85582   0.00000  Uiso   1.00
H33    H     0.52477   0.19276   0.78302   0.00000  Uiso   1.00
H34    H     0.38174   0.15344   0.82977   0.00000  Uiso   1.00
O35    O     0.04998   0.61255   0.53505   0.06033  Uani   1.00
O36    O     0.00683   0.83718   0.71022   0.02699  Uani   1.00
O37    O     0.92436   0.55404   0.58761   0.02713  Uani   1.00
C38    C     0.06584   0.76258   0.63433   0.03296  Uani   1.00
C39    C     0.08880   0.73576   0.59342   0.03791  Uani   1.00
C40    C     0.01562   0.62793   0.57092   0.03463  Uani   1.00
H41    H     0.29095   0.29610   0.34913   0.00000  Uiso   1.00
O42    O     0.94791   0.38738   0.03547   0.06033  Uani   1.00
O43    O     0.99552   0.16019   0.20818   0.02699  Uani   1.00
O44    O     0.07530   0.44598   0.08741   0.02713  Uani   1.00
C45    C     0.93351   0.23729   0.13429   0.03296  Uani   1.00
C46    C     0.91037   0.26442   0.09358   0.03791  Uani   1.00
C47    C     0.98333   0.37227   0.07112   0.03463  Uani   1.00
H48    H     0.72018   0.71084   0.85411   0.00000  Uiso   1.00
H49    H     0.86120   0.59613   0.83745   0.00000  Uiso   1.00
O50    O     0.61218   0.04952   0.46477   0.06033  Uani   1.00
O51    O     0.83692   0.00572   0.29077   0.02699  Uani   1.00
O52    O     0.55402   0.92463   0.41190   0.02713  Uani   1.00
C53    C     0.76221   0.06608   0.36594   0.03296  Uani   1.00
C54    C     0.73527   0.08936   0.40662   0.03791  Uani   1.00
C55    C     0.62765   0.01576   0.42880   0.03463  Uani   1.00
H56    H     0.29557   0.28982   0.65101   0.00000  Uiso   1.00
H57    H     0.50689   0.18929   0.71179   0.00000  Uiso   1.00
O58    O     0.38937   0.95408   0.96569   0.06033  Uani   1.00
O59    O     0.16103   0.99860   0.79344   0.02699  Uani   1.00
O60    O     0.44598   0.07579   0.91137   0.02713  Uani   1.00
C61    C     0.23431   0.93794   0.86958   0.03296  Uani   1.00
C62    C     0.26421   0.91230   0.90884   0.03791  Uani   1.00
C63    C     0.37293   0.98619   0.92961   0.03463  Uani   1.00
H64    H     0.70422   0.70868   0.15126   0.00000  Uiso   1.00
H65    H     0.64244   0.82015   0.16091   0.00000  Uiso   1.00
Al66   Al    0.07104   0.14185   0.25014   0.01181  Uani   1.00
O67    O     0.13705   0.28611   0.25019   0.02649  Uani   1.00
Al68   Al    0.92992   0.85817   0.75079   0.01181  Uani   1.00
O69    O     0.85609   0.71377   0.75015   0.02649  Uani   1.00
Al70   Al    0.17670   0.58833   0.42572   0.01394  Uani   1.00
O71    O     0.12041   0.55999   0.47437   0.01274  Uani   1.00
O72    O     0.21406   0.60698   0.37156   0.06178  Uani   1.00
Al73   Al    0.82340   0.41236   0.92423   0.01394  Uani   1.00
O74    O     0.87752   0.43975   0.97354   0.01274  Uani   1.00
O75    O     0.78651   0.39374   0.86959   0.06178  Uani   1.00
Al76   Al    0.58821   0.17666   0.57350   0.01394  Uani   1.00
O77    O     0.55959   0.11988   0.52499   0.01274  Uani   1.00
O78    O     0.60693   0.21416   0.62740   0.06178  Uani   1.00
Al79   Al    0.41199   0.82348   0.07321   0.01394  Uani   1.00
O80    O     0.44150   0.88171   0.02473   0.01274  Uani   1.00
O81    O     0.39323   0.78594   0.12729   0.06178  Uani   1.00
Al82   Al    0.00030   0.50002   0.49999   0.01210  Uani   1.00
Al83   Al   -0.00305   0.49893   0.00003   0.01210  Uani   1.00
Al84   Al    0.26730   0.73250   0.34938   0.00760  Uiso   0.33
O85    O     0.27761   0.72234   0.43921   0.02009  Uani   1.00
O86    O     0.19836   0.80108   0.36562   0.03100  Uiso   0.33
O87    O     0.26887   0.73041   0.29267   0.03600  Uiso   0.33
Al88   Al    0.73190   0.27047   0.84650   0.00760  Uiso   0.33
O89    O     0.72270   0.27817   0.93698   0.02009  Uani   1.00
O90    O     0.79457   0.19778   0.85360   0.03100  Uiso   0.33
O91    O     0.73068   0.27837   0.78979   0.03600  Uiso   0.33
Al92   Al    0.73245   0.26722   0.64938   0.00760  Uiso   0.33
O93    O     0.72223   0.27758   0.55973   0.02009  Uani   1.00
O94    O     0.80140   0.19854   0.63312   0.03100  Uiso   0.33
O95    O     0.73244   0.26989   0.70564   0.03600  Uiso   0.33
Al96   Al    0.26767   0.73283   0.14944   0.00760  Uiso   0.33
O97    O     0.27790   0.72245   0.05939   0.02009  Uani   1.00
O98    O     0.19953   0.80233   0.13334   0.03100  Uiso   0.33
O99    O     0.26906   0.73068   0.20611   0.03600  Uiso   0.33
C100   C     0.86393   0.13562   0.34627   0.03033  Uani   1.00
C101   C     0.81181   0.18834   0.42645   0.04251  Uani   1.00
H102   H     0.79263   0.20778   0.45755   0.05100  Uiso   1.00
C103   C     0.90006   0.09910   0.30711   0.02013  Uani   1.00
C104   C     0.13388   0.87055   0.84984   0.03033  Uani   1.00
C105   C     0.19021   0.81153   0.92806   0.04251  Uani   1.00
H106   H     0.21206   0.78891   0.95792   0.05100  Uiso   1.00
C107   C     0.09884   0.90479   0.80956   0.02013  Uani   1.00
C108   C     0.13612   0.86394   0.65432   0.03033  Uani   1.00
C109   C     0.18739   0.81252   0.57351   0.04251  Uani   1.00
H110   H     0.20622   0.79369   0.54216   0.05100  Uiso   1.00
C111   C     0.10047   0.89990   0.69404   0.02013  Uani   1.00
C112   C     0.86380   0.13538   0.15389   0.03033  Uani   1.00
C113   C     0.81171   0.18787   0.07372   0.04251  Uani   1.00
H114   H     0.79223   0.20684   0.04252   0.05100  Uiso   1.00
C115   C     0.90012   0.09912   0.19311   0.02013  Uani   1.00
O116   O     0.00000   0.00000   0.25017   0.01171  Uani   1.00
O117   O     0.00000   0.00000   0.75004   0.01171  Uani   1.00
loop_
_atom_site_aniso_label
_atom_site_aniso_U_11
_atom_site_aniso_U_22
_atom_site_aniso_U_33
_atom_site_aniso_U_12
_atom_site_aniso_U_13
_atom_site_aniso_U_23
O1        0.04070   0.03360   0.06060  -0.01600   0.03450  -0.03440
O2        0.02490   0.01650   0.03230   0.00490   0.01510  -0.00410
O3        0.01450   0.02190   0.03260  -0.00020   0.00630  -0.01360
C4        0.01980   0.02430   0.03980  -0.00020   0.01090  -0.01190
C5        0.02330   0.02480   0.04600  -0.00270   0.01490  -0.01790
C6        0.02100   0.02690   0.04270   0.00200   0.01040  -0.01820
O9        0.04070   0.03360   0.06060  -0.01600  -0.03450   0.03440
O10       0.02490   0.01650   0.03230   0.00490  -0.01510   0.00410
O11       0.01450   0.02190   0.03260  -0.00020  -0.00630   0.01360
C12       0.01980   0.02430   0.03980  -0.00020  -0.01090   0.01190
C13       0.02330   0.02480   0.04600  -0.00270  -0.01490   0.01790
C14       0.02100   0.02690   0.04270   0.00200  -0.01040   0.01820
O17       0.03360   0.04070   0.06060  -0.01600   0.03440  -0.03450
O18       0.01650   0.02490   0.03230   0.00490   0.00410  -0.01510
O19       0.02190   0.01450   0.03260  -0.00020   0.01360  -0.00630
C20       0.02430   0.01980   0.03980  -0.00020   0.01190  -0.01090
C21       0.02480   0.02330   0.04600  -0.00270   0.01790  -0.01490
C22       0.02690   0.02100   0.04270   0.00200   0.01820  -0.01040
O26       0.03360   0.04070   0.06060  -0.01600  -0.03440   0.03450
O27       0.01650   0.02490   0.03230   0.00490  -0.00410   0.01510
O28       0.02190   0.01450   0.03260  -0.00020  -0.01360   0.00630
C29       0.02430   0.01980   0.03980  -0.00020  -0.01190   0.01090
C30       0.02480   0.02330   0.04600  -0.00270  -0.01790   0.01490
C31       0.02690   0.02100   0.04270   0.00200  -0.01820   0.01040
O35       0.04070   0.03360   0.06060  -0.01600   0.03450  -0.03440
O36       0.02490   0.01650   0.03230   0.00490   0.01510  -0.00410
O37       0.01450   0.02190   0.03260  -0.00020   0.00630  -0.01360
C38       0.01980   0.02430   0.03980  -0.00020   0.01090  -0.01190
C39       0.02330   0.02480   0.04600  -0.00270   0.01490  -0.01790
C40       0.02100   0.02690   0.04270   0.00200   0.01040  -0.01820
O42       0.04070   0.03360   0.06060  -0.01600  -0.03450   0.03440
O43       0.02490   0.01650   0.03230   0.00490  -0.01510   0.00410
O44       0.01450   0.02190   0.03260  -0.00020  -0.00630   0.01360
C45       0.01980   0.02430   0.03980  -0.00020  -0.01090   0.01190
C46       0.02330   0.02480   0.04600  -0.00270  -0.01490   0.01790
C47       0.02100   0.02690   0.04270   0.00200  -0.01040   0.01820
O50       0.03360   0.04070   0.06060  -0.01600   0.03440  -0.03450
O51       0.01650   0.02490   0.03230   0.00490   0.00410  -0.01510
O52       0.02190   0.01450   0.03260  -0.00020   0.01360  -0.00630
C53       0.02430   0.01980   0.03980  -0.00020   0.01190  -0.01090
C54       0.02480   0.02330   0.04600  -0.00270   0.01790  -0.01490
C55       0.02690   0.02100   0.04270   0.00200   0.01820  -0.01040
O58       0.03360   0.04070   0.06060  -0.01600  -0.03440   0.03450
O59       0.01650   0.02490   0.03230   0.00490  -0.00410   0.01510
O60       0.02190   0.01450   0.03260  -0.00020  -0.01360   0.00630
C61       0.02430   0.01980   0.03980  -0.00020  -0.01190   0.01090
C62       0.02480   0.02330   0.04600  -0.00270  -0.01790   0.01490
C63       0.02690   0.02100   0.04270   0.00200  -0.01820   0.01040
Al66      0.01065   0.01130   0.01370   0.00565   0.00000   0.00000
O67       0.02260   0.01400   0.04000   0.00700   0.00000   0.00000
Al68      0.01065   0.01130   0.01370   0.00565   0.00000   0.00000
O69       0.02260   0.01400   0.04000   0.00700   0.00000   0.00000
Al70      0.00880   0.01670   0.01370   0.00440   0.00080   0.00040
O71       0.01040   0.01680   0.00890   0.00520   0.00300   0.00150
O72       0.03400   0.10910   0.01720   0.01700   0.00770   0.00385
Al73      0.00880   0.01670   0.01370   0.00440  -0.00080  -0.00040
O74       0.01040   0.01680   0.00890   0.00520  -0.00300  -0.00150
O75       0.03400   0.10910   0.01720   0.01700  -0.00770  -0.00385
Al76      0.01670   0.00880   0.01370   0.00440  -0.00040  -0.00080
O77       0.01680   0.01040   0.00890   0.00520  -0.00150  -0.00300
O78       0.10910   0.03400   0.01720   0.01700  -0.00385  -0.00770
Al79      0.01670   0.00880   0.01370   0.00440   0.00040   0.00080
O80       0.01680   0.01040   0.00890   0.00520   0.00150   0.00300
O81       0.10910   0.03400   0.01720   0.01700   0.00385   0.00770
Al82      0.01420   0.01240   0.01030   0.00710   0.00160   0.00080
Al83      0.01420   0.01240   0.01030   0.00710  -0.00160  -0.00080
O85       0.00700   0.00700   0.04400   0.00180  -0.00070   0.00070
O89       0.00700   0.00700   0.04400   0.00180   0.00070  -0.00070
O93       0.00700   0.00700   0.04400   0.00180  -0.00070   0.00070
O97       0.00700   0.00700   0.04400   0.00180   0.00070  -0.00070
C100      0.02350   0.02350   0.03500   0.00500   0.00980  -0.00980
C101      0.02920   0.02920   0.04700  -0.00200   0.02030  -0.02030
C103      0.01990   0.01990   0.02200   0.01100   0.00250  -0.00250
C104      0.02350   0.02350   0.03500   0.00500  -0.00980   0.00980
C105      0.02920   0.02920   0.04700  -0.00200  -0.02030   0.02030
C107      0.01990   0.01990   0.02200   0.01100  -0.00250   0.00250
C108      0.02350   0.02350   0.03500   0.00500   0.00980  -0.00980
C109      0.02920   0.02920   0.04700  -0.00200   0.02030  -0.02030
C111      0.01990   0.01990   0.02200   0.01100   0.00250  -0.00250
C112      0.02350   0.02350   0.03500   0.00500  -0.00980   0.00980
C113      0.02920   0.02920   0.04700  -0.00200  -0.02030   0.02030
C115      0.01990   0.01990   0.02200   0.01100  -0.00250   0.00250
O116      0.01107   0.01107   0.01300   0.00553   0.00000   0.00000
O117      0.01107   0.01107   0.01300   0.00553   0.00000   0.00000
loop_
_geom_bond_atom_site_label_1
_geom_bond_atom_site_label_2
_geom_bond_distance
_geom_bond_site_symmetry_2
_ccdc_geom_bond_type
O1     Al82    1.769   1_655 S
O1     C6      1.284   .     A
O2     Al66    1.792   1_655 S
O2     C103    1.278   .     A
O3     Al70    1.854   .     S
O3     C6      1.300   1_455 A
C4     C5      1.413   .     A
C4     C100    1.420   .     A
C4     H23     1.073   3_665 S
C5     C101    1.419   .     A
C5     C6      1.522   .     S
C6     O3      1.300   1_655 A
H7     C20     1.073   3_565 S
H8     O94     0.989   2_655 S
O9     Al83    1.762   1_556 S
O9     C14     1.283   .     A
O10    Al68    1.796   1_455 S
O10    C107    1.281   .     A
O11    Al73    1.860   .     S
O11    C14     1.306   1_655 A
C12    C13     1.407   .     A
C12    C104    1.400   .     A
C12    H32     1.028   3_565 S
C13    C105    1.417   .     A
C13    C14     1.520   .     S
C14    O11     1.306   1_455 A
H15    C29     1.072   3_665 S
H16    O99     0.989   2_665 S
O17    Al82    1.767   3_565 S
O17    C22     1.285   .     A
O18    Al68    1.801   2_665 S
O18    C111    1.280   .     A
O19    Al76    1.857   .     S
O19    C22     1.300   1_545 A
C20    C21     1.416   .     A
C20    C108    1.421   .     A
C20    H7      1.073   2_665 S
C21    C109    1.418   .     A
C21    C22     1.527   .     S
C22    O19     1.300   1_565 A
H23    C4      1.073   2_655 S
H24    O87     0.990   3_565 S
H25    O86     0.989   2_665 S
O26    Al83    1.761   3     S
O26    C31     1.284   .     A
O27    Al66    1.792   2_655 S
O27    C115    1.279   .     A
O28    Al79    1.855   .     S
O28    C31     1.301   1_565 A
C29    C30     1.414   .     A
C29    C112    1.419   .     A
C29    H15     1.072   2_655 S
C30    C113    1.418   .     A
C30    C31     1.520   .     S
C31    O28     1.301   1_545 A
H32    C12     1.028   2_665 S
H33    O91     0.990   3_665 S
H34    O90     0.983   3_665 S
O35    Al82    1.768   .     S
O35    C40     1.283   .     A
O36    Al68    1.793   1_455 S
O36    C111    1.278   .     A
O37    Al76    1.857   2_655 S
O37    C40     1.301   1_655 A
C38    C39     1.417   .     A
C38    C108    1.422   .     A
C38    H56     1.072   3_565 S
C39    C109    1.418   .     A
C39    C40     1.526   .     S
C40    O37     1.301   1_455 A
H41    C53     1.071   3_665 S
O42    Al83    1.766   1_655 S
O42    C47     1.283   .     A
O43    Al66    1.793   1_655 S
O43    C115    1.279   .     A
O44    Al79    1.858   2_665 S
O44    C47     1.302   1_455 A
C45    C46     1.414   .     A
C45    C112    1.421   .     A
C45    H64     1.072   3_665 S
C46    C113    1.417   .     A
C46    C47     1.525   .     S
C47    O44     1.302   1_655 A
H48    C61     1.039   3_565 S
H49    O90     0.982   2_655 S
O50    Al82    1.770   3     S
O50    C55     1.283   .     A
O51    Al66    1.792   2_655 S
O51    C103    1.279   .     A
O52    Al70    1.854   3_565 S
O52    C55     1.302   1_565 A
C53    C54     1.413   .     A
C53    C100    1.419   .     A
C53    H41     1.071   2_655 S
C54    C101    1.419   .     A
C54    C55     1.521   .     S
C55    O52     1.302   1_545 A
H56    C38     1.072   2_665 S
H57    O95     0.990   3_665 S
O58    Al83    1.755   3_566 S
O58    C63     1.280   .     A
O59    Al68    1.792   2_665 S
O59    C107    1.278   .     A
O60    Al73    1.852   3_665 S
O60    C63     1.304   1_545 A
C61    C62     1.404   .     A
C61    C104    1.402   .     A
C61    H48     1.039   2_665 S
C62    C105    1.418   .     A
C62    C63     1.512   .     S
C63    O60     1.304   1_565 A
H64    C45     1.072   2_655 S
H65    O98     0.989   3_565 S
Al66   O116    1.745   .     S
Al66   O2      1.792   1_455 S
Al66   O27     1.792   3_665 S
Al66   O43     1.793   1_455 S
Al66   O51     1.792   3_665 S
Al66   O67     1.777   .     S
Al68   O117    1.745   1_665 S
Al68   O10     1.796   1_655 S
Al68   O18     1.801   3_565 S
Al68   O36     1.793   1_655 S
Al68   O59     1.792   3_565 S
Al68   O69     1.777   .     S
Al70   O85     1.769   .     S
Al70   O85     1.769   2_665 S
Al70   O71     1.670   .     S
Al70   O72     1.753   .     S
Al70   O52     1.854   2_665 S
O71    Al82    1.681   .     S
O72    Al84    1.698   .     S
O72    Al84    1.699   2_665 S
Al73   O89     1.764   .     S
Al73   O89     1.763   2_655 S
Al73   O74     1.678   .     S
Al73   O75     1.766   .     S
Al73   O60     1.852   2_655 S
O74    Al83    1.686   1_656 S
O75    Al88    1.682   .     S
O75    Al88    1.697   2_655 S
Al76   O93     1.771   .     S
Al76   O93     1.771   3_665 S
Al76   O77     1.668   .     S
Al76   O78     1.745   .     S
Al76   O37     1.857   3_665 S
O77    Al82    1.672   3     S
O78    Al92    1.696   .     S
O78    Al92    1.696   3_665 S
Al79   O97     1.772   .     S
Al79   O97     1.772   3_565 S
Al79   O80     1.675   .     S
Al79   O81     1.751   .     S
Al79   O44     1.858   3_565 S
O80    Al83    1.680   3_565 S
O81    Al96    1.698   .     S
O81    Al96    1.697   3_565 S
Al82   O77     1.672   2     S
Al82   O1      1.769   1_455 S
Al82   O17     1.767   2_665 S
Al82   O50     1.770   2     S
Al83   O74     1.686   1_454 S
Al83   O80     1.680   2_665 S
Al83   O9      1.762   1_554 S
Al83   O26     1.761   2     S
Al83   O42     1.766   1_455 S
Al83   O58     1.755   2_664 S
Al84   O86     1.767   .     S
Al84   O87     1.772   .     S
Al84   O72     1.699   3_565 S
O85    Al70    1.769   3_565 S
O86    H25     0.989   3_565 S
O87    H24     0.990   2_665 S
Al88   O90     1.682   .     S
Al88   O91     1.775   .     S
Al88   O75     1.697   3_665 S
O89    Al73    1.763   3_665 S
O90    H34     0.983   2_655 S
O90    H49     0.982   3_665 S
O91    H33     0.990   2_655 S
Al92   O94     1.768   .     S
Al92   O95     1.757   .     S
Al92   O78     1.696   2_655 S
O93    Al76    1.771   2_655 S
O94    H8      0.989   3_665 S
O95    H57     0.990   2_655 S
Al96   O98     1.767   .     S
Al96   O99     1.770   .     S
Al96   O81     1.697   2_665 S
O97    Al79    1.772   2_665 S
O98    H65     0.989   2_665 S
O99    H16     0.989   3_565 S
C100   C103    1.515   .     S
C101   H102    1.081   .     S
C104   C107    1.520   .     S
C105   H106    1.081   .     S
C108   C111    1.522   .     S
C109   H110    1.083   .     S
C112   C115    1.516   .     S
C113   H114    1.083   .     S
O116   Al66    1.745   2     S
O116   Al66    1.745   3     S
O117   Al68    1.745   1_445 S
O117   Al68    1.745   2_655 S
O117   Al68    1.745   3_565 S
