data_MIL-125
_audit_creation_date              2024-01-10
_audit_creation_method            'Materials Studio'
_symmetry_space_group_name_H-M    'PMM2'
_symmetry_Int_Tables_number       25
_symmetry_cell_setting            orthorhombic
loop_
_symmetry_equiv_pos_as_xyz
  x,y,z
  -x,-y,z
  x,-y,z
  -x,y,z
_cell_length_a                    18.6543
_cell_length_b                    18.6543
_cell_length_c                    18.1444
_cell_angle_alpha                 90.0000
_cell_angle_beta                  90.0000
_cell_angle_gamma                 90.0000
loop_
_atom_site_label
_atom_site_type_symbol
_atom_site_fract_x
_atom_site_fract_y
_atom_site_fract_z
_atom_site_U_iso_or_equiv
_atom_site_adp_type
_atom_site_occupancy
O1     O     0.22611   0.14206   0.42043   0.00000  Uiso   1.00
C2     C     0.19188   0.28323   0.28647   0.00000  Uiso   1.00
H3     H     0.14481   0.31156   0.31399   0.00000  Uiso   1.00
O4     O     0.72611   0.64206   0.92043   0.00000  Uiso   1.00
C5     C     0.69188   0.78323   0.78647   0.00000  Uiso   1.00
H6     H     0.64523   0.81118   0.81335   0.00000  Uiso   1.00
O7     O     0.85809   0.22591   0.42018   0.00000  Uiso   1.00
C8     C     0.71667   0.19176   0.28647   0.00000  Uiso   1.00
H9     H     0.68838   0.14466   0.31397   0.00000  Uiso   1.00
O10    O     0.35809   0.72591   0.92018   0.00000  Uiso   1.00
C11    C     0.21667   0.69176   0.78647   0.00000  Uiso   1.00
H12    H     0.18876   0.64507   0.81333   0.00000  Uiso   1.00
O13    O     0.77409   0.14191   0.57982   0.00000  Uiso   1.00
C14    C     0.80824   0.28333   0.71353   0.00000  Uiso   1.00
H15    H     0.85493   0.31124   0.68667   0.00000  Uiso   1.00
O16    O     0.27409   0.64191   0.07982   0.00000  Uiso   1.00
C17    C     0.30824   0.78333   0.21353   0.00000  Uiso   1.00
H18    H     0.35534   0.81162   0.18603   0.00000  Uiso   1.00
O19    O     0.14206   0.22611   0.57957   0.00000  Uiso   1.00
C20    C     0.28323   0.19188   0.71353   0.00000  Uiso   1.00
H21    H     0.31118   0.14523   0.68665   0.00000  Uiso   1.00
O22    O     0.64206   0.72611   0.07957   0.00000  Uiso   1.00
C23    C     0.78323   0.69188   0.21353   0.00000  Uiso   1.00
H24    H     0.81156   0.64481   0.18601   0.00000  Uiso   1.00
Ti25   Ti    0.20416   0.07633   0.50007   0.00000  Uiso   1.00
O26    O     0.30788   0.05943   0.50017   0.00000  Uiso   1.00
C27    C     0.46019   0.06450   0.50021   0.00000  Uiso   1.00
Ti28   Ti    0.70416   0.57633   0.00007   0.00000  Uiso   1.00
O29    O     0.80788   0.55943   0.00017   0.00000  Uiso   1.00
C30    C     0.96019   0.56450   0.00021   0.00000  Uiso   1.00
Ti31   Ti    0.92367   0.20416   0.49993   0.00000  Uiso   1.00
O32    O     0.94057   0.30788   0.49983   0.00000  Uiso   1.00
C33    C     0.93550   0.46019   0.49979   0.00000  Uiso   1.00
Ti34   Ti    0.42367   0.70416  -0.00007   0.00000  Uiso   1.00
O35    O     0.44057   0.80788  -0.00017   0.00000  Uiso   1.00
C36    C     0.43550   0.96019  -0.00021   0.00000  Uiso   1.00
O37    O     0.09790   0.09790   0.50000   0.00000  Uiso   1.00
O38    O     0.59790   0.59790  -0.00000   0.00000  Uiso   1.00
C39    C     0.19660   0.19655   0.39234   0.00000  Uiso   1.00
C40    C     0.22551   0.22541   0.32188   0.00000  Uiso   1.00
C41    C     0.69660   0.69655   0.89234   0.00000  Uiso   1.00
C42    C     0.72551   0.72541   0.82188   0.00000  Uiso   1.00
C43    C     0.80345   0.19660   0.60766   0.00000  Uiso   1.00
C44    C     0.77459   0.22551   0.67812   0.00000  Uiso   1.00
C45    C     0.30345   0.69660   0.10766   0.00000  Uiso   1.00
C46    C     0.27459   0.72551   0.17812   0.00000  Uiso   1.00
H47    H     0.88211   0.43046   0.49979   0.00000  Uiso   1.00
H48    H    -0.00000   0.21054   0.61975   0.00000  Uiso   1.00
O49    O    -0.00000   0.18905   0.42850   0.00000  Uiso   1.00
O50    O    -0.00000   0.18919   0.57121   0.00000  Uiso   1.00
C51    C    -0.00000   0.34150   0.49981   0.00000  Uiso   1.00
C52    C    -0.00000   0.42159   0.49979   0.00000  Uiso   1.00
H53    H     0.50000   0.71054   0.11975   0.00000  Uiso   1.00
O54    O     0.50000   0.68905   0.92850   0.00000  Uiso   1.00
O55    O     0.50000   0.68919   0.07121   0.00000  Uiso   1.00
C56    C     0.50000   0.84150  -0.00019   0.00000  Uiso   1.00
C57    C     0.50000   0.92159  -0.00021   0.00000  Uiso   1.00
H58    H     0.78946   0.00000   0.38025   0.00000  Uiso   1.00
O59    O     0.18919   0.00000   0.42879   0.00000  Uiso   1.00
O60    O     0.81095   0.00000   0.57150   0.00000  Uiso   1.00
C61    C     0.34150   0.00000   0.50019   0.00000  Uiso   1.00
C62    C     0.42159   0.00000   0.50021   0.00000  Uiso   1.00
H63    H     0.28946   0.50000   0.88025   0.00000  Uiso   1.00
O64    O     0.68919   0.50000   0.92879   0.00000  Uiso   1.00
O65    O     0.31095   0.50000   0.07150   0.00000  Uiso   1.00
C66    C     0.84150   0.50000   0.00019   0.00000  Uiso   1.00
C67    C     0.92159   0.50000   0.00021   0.00000  Uiso   1.00
loop_
_geom_bond_atom_site_label_1
_geom_bond_atom_site_label_2
_geom_bond_distance
_geom_bond_site_symmetry_2
_ccdc_geom_bond_type
O1     Ti25    1.939   .     S
O1     C39     1.263   .     A
C2     C40     1.404   .     A
C2     H3      1.140   .     S
C2     C23     1.477   2_665 A
O4     Ti28    1.939   1_556 S
O4     C41     1.263   .     A
C5     C42     1.404   .     A
C5     H6      1.126   .     S
C5     C20     1.477   2_665 A
O7     Ti31    1.938   .     S
O7     C39     1.263   4_655 A
C8     C40     1.404   4_655 A
C8     H9      1.140   .     S
C8     C17     1.478   2_665 A
O10    Ti34    1.938   1_556 S
O10    C41     1.263   4_655 A
C11    C42     1.404   4_655 A
C11    H12     1.126   .     S
C11    C14     1.478   2_665 A
O13    Ti25    1.938   4_655 S
O13    C43     1.263   .     A
C14    C44     1.404   .     A
C14    H15     1.126   .     S
C14    C11     1.478   2_665 A
O16    Ti28    1.938   4_655 S
O16    C45     1.263   .     A
C17    C46     1.404   .     A
C17    H18     1.140   .     S
C17    C8      1.478   2_665 A
O19    Ti31    1.939   4_655 S
O19    C43     1.263   4_655 A
C20    C44     1.404   4_655 A
C20    H21     1.126   .     S
C20    C5      1.477   2_665 A
O22    Ti34    1.939   4_655 S
O22    C45     1.263   4_655 A
C23    C46     1.404   4_655 A
C23    H24     1.140   .     S
C23    C2      1.477   2_665 A
Ti25   O13     1.938   4_655 S
Ti25   O26     1.960   .     S
Ti25   O59     1.944   .     S
Ti25   O60     1.946   2_655 S
Ti25   O37     2.023   .     S
Ti25   Ti25    2.848   3     S
O26    C61     1.274   .     A
C27    C62     1.402   .     A
C27    C27     1.485   4_655 S
Ti28   O4      1.939   1_554 S
Ti28   O16     1.938   4_655 S
Ti28   O29     1.960   .     S
Ti28   O64     1.944   1_554 S
Ti28   O65     1.946   2_665 S
Ti28   O38     2.023   .     S
Ti28   Ti28    2.848   3_565 S
O29    C66     1.274   .     A
C30    C67     1.402   .     A
C30    C30     1.485   4_755 S
Ti31   O19     1.939   4_655 S
Ti31   O32     1.960   .     S
Ti31   O49     1.946   1_655 S
Ti31   O50     1.944   1_655 S
Ti31   O37     2.023   4_655 S
Ti31   Ti31    2.848   4_755 S
O32    C51     1.274   1_655 A
C33    C52     1.402   1_655 A
C33    C33     1.485   3_565 A
C33    H47     1.140   .     S
Ti34   O10     1.938   1_554 S
Ti34   O22     1.939   4_655 S
Ti34   O35     1.960   .     S
Ti34   O54     1.946   1_554 S
Ti34   O55     1.944   .     S
Ti34   O38     2.023   4_655 S
Ti34   Ti34    2.848   4_655 S
O35    C56     1.274   .     A
C36    C57     1.402   .     A
C36    C36     1.485   3_575 S
O37    Ti31    2.023   4_655 S
O38    Ti34    2.023   4_655 S
C39    O7      1.263   4_655 A
C39    C40     1.488   .     S
C40    C8      1.404   4_655 A
C41    O10     1.263   4_655 A
C41    C42     1.488   .     S
C42    C11     1.404   4_655 A
C43    O19     1.263   4_655 A
C43    C44     1.488   .     S
C44    C20     1.404   4_655 A
C45    O22     1.263   4_655 A
C45    C46     1.488   .     S
C46    C23     1.404   4_655 A
H48    O50     0.967   .     S
O49    Ti31    1.946   1_455 S
O49    Ti31    1.946   4_655 S
O50    Ti31    1.944   4_655 S
O50    Ti31    1.944   1_455 S
C51    O32     1.274   1_455 A
C51    O32     1.274   4_655 A
C51    C52     1.494   .     S
C52    C33     1.402   1_455 A
C52    C33     1.402   4_655 A
H53    O55     0.967   .     S
O54    Ti34    1.946   1_556 S
O54    Ti34    1.946   4_656 S
O55    Ti34    1.944   4_655 S
C56    O35     1.274   4_655 A
C56    C57     1.494   .     S
C57    C36     1.402   4_655 A
H58    O59     0.967   2_655 S
O59    Ti25    1.944   3     S
O59    H58     0.967   2_655 S
O60    Ti25    1.946   4_655 S
O60    Ti25    1.946   2_655 S
C61    O26     1.274   3     A
C61    C62     1.494   .     S
C62    C27     1.402   3     A
H63    O64     0.967   2_665 S
O64    Ti28    1.944   1_556 S
O64    Ti28    1.944   3_566 S
O64    H63     0.967   2_665 S
O65    Ti28    1.946   4_655 S
O65    Ti28    1.946   2_665 S
C66    O29     1.274   3_565 A
C66    C67     1.494   .     S
C67    C30     1.402   3_565 A
