data_MIL-53
_audit_creation_date              2024-01-10
_audit_creation_method            'Materials Studio'
_symmetry_space_group_name_H-M    'IMMA'
_symmetry_Int_Tables_number       74
_symmetry_cell_setting            orthorhombic
loop_
_symmetry_equiv_pos_as_xyz
  x,y,z
  -x,-y+1/2,z
  -x,y+1/2,-z
  x,-y,-z
  -x,-y,-z
  x,y+1/2,-z
  x,-y+1/2,z
  -x,y,z
  x+1/2,y+1/2,z+1/2
  -x+1/2,-y,z+1/2
  -x+1/2,y,-z+1/2
  x+1/2,-y+1/2,-z+1/2
  -x+1/2,-y+1/2,-z+1/2
  x+1/2,y,-z+1/2
  x+1/2,-y,z+1/2
  -x+1/2,y+1/2,z+1/2
_cell_length_a                    17.6956
_cell_length_b                    6.8745
_cell_length_c                    11.9303
_cell_angle_alpha                 90.0000
_cell_angle_beta                  90.0000
_cell_angle_gamma                 90.0000
loop_
_atom_site_label
_atom_site_type_symbol
_atom_site_fract_x
_atom_site_fract_y
_atom_site_fract_z
_atom_site_U_iso_or_equiv
_atom_site_adp_type
_atom_site_occupancy
O1     O     0.07456   0.58187   0.90406   0.03000  Uani   1.00
C3     C     0.21458   0.57514   0.77800   0.04200  Uani   1.00
H      H     0.18921   0.43667   0.79917   0.00000  Uiso   1.00
Fe1    Al    0.00000   0.50000  -0.00000   0.02537  Uani   1.00
O2     O     0.00000   0.75000   0.05000   0.02433  Uani   1.00
C1     C     0.10344   0.75000   0.87458   0.02500  Uani   1.00
C2     C     0.17722   0.75000   0.80718   0.03000  Uani   1.00
loop_
_atom_site_aniso_label
_atom_site_aniso_U_11
_atom_site_aniso_U_22
_atom_site_aniso_U_33
_atom_site_aniso_U_12
_atom_site_aniso_U_13
_atom_site_aniso_U_23
O1        0.02500   0.01900   0.04600  -0.00340   0.01240  -0.00290
C3        0.03200   0.01800   0.07600  -0.00200   0.02200  -0.00100
Fe1       0.01280   0.02380   0.03950   0.00000   0.00000   0.00800
O2        0.02300   0.01200   0.03800  -0.00000   0.00000  -0.00000
C1        0.01500   0.02100   0.03900   0.00000   0.00400   0.00000
C2        0.02600   0.01700   0.04700   0.00000   0.01100  -0.00000
loop_
_geom_bond_atom_site_label_1
_geom_bond_atom_site_label_2
_geom_bond_distance
_geom_bond_site_symmetry_2
_ccdc_geom_bond_type
O1     Fe1     1.835   1_556 S
O1     C1      1.312   .     A
C3     C2      1.415   .     A
C3     C3      1.421   11_556 A
C3     H       1.082   .     S
Fe1    O2      1.819   .     S
Fe1    O2      1.819   3_545 S
Fe1    O1      1.835   1_554 S
Fe1    O1      1.835   4_566 S
Fe1    O1      1.835   5_566 S
Fe1    O1      1.835   8_554 S
O2     Fe1     1.819   2_565 S
C1     O1      1.312   7_565 A
C1     C2      1.533   .     S
C2     C3      1.415   7_565 A
