data_MIL140-BPDC
_audit_creation_date              2024-01-10
_audit_creation_method            'Materials Studio'
_symmetry_space_group_name_H-M    'C2/C'
_symmetry_Int_Tables_number       15
_symmetry_cell_setting            monoclinic
loop_
_symmetry_equiv_pos_as_xyz
  x,y,z
  -x,y,-z+1/2
  -x,-y,-z
  x,-y,z+1/2
  x+1/2,y+1/2,z
  -x+1/2,y+1/2,-z+1/2
  -x+1/2,-y+1/2,-z
  x+1/2,-y+1/2,z+1/2
_cell_length_a                    32.3600
_cell_length_b                    15.8000
_cell_length_c                    7.9100
_cell_angle_alpha                 90.0000
_cell_angle_beta                  103.0000
_cell_angle_gamma                 90.0000
loop_
_atom_site_label
_atom_site_type_symbol
_atom_site_fract_x
_atom_site_fract_y
_atom_site_fract_z
_atom_site_U_iso_or_equiv
_atom_site_adp_type
_atom_site_occupancy
Zr1    Zr    0.54279   1.01625   0.67519   0.03454  Uani   1.00
O1     O     0.52195   0.95957   0.41476   0.06195  Uani   1.00
O4     O     0.53007   0.14855   0.69705   0.06128  Uani   1.00
C15    C     0.53671   0.70345   0.74303   0.07250  Uani   1.00
H15    H     0.56587   0.73619   0.73893   0.08700  Uiso   1.00
O2     O     0.60133   0.97373   0.82808   0.05376  Uani   1.00
O5     O     0.53196   0.88576   0.71366   0.05108  Uani   1.00
C11    C     0.53087   0.42123   0.68930   0.08583  Uani   1.00
H11    H     0.55488   0.45270   0.63697   0.10300  Uiso   1.00
C1     C     0.61258   0.92641   0.96353   0.04723  Uani   1.00
C14    C     0.53682   0.61382   0.74434   0.08270  Uani   1.00
H14    H     0.56642   0.58235   0.74381   0.09900  Uiso   1.00
O3     O     0.59205   0.91903   1.08603   0.06433  Uani   1.00
C10    C     0.53098   0.33159   0.69020   0.08012  Uani   1.00
H10    H     0.55539   0.29893   0.64190   0.09600  Uiso   1.00
C2     C     0.65328   0.87622   0.97822   0.11321  Uani   1.00
C3     C     0.67692   0.88169   0.84901   0.17122  Uani   1.00
H3     H     0.66664   0.92338   0.73888   0.20700  Uiso   1.00
C7     C     0.66856   0.82051   1.11710   0.26001  Uani   1.00
H7     H     0.65156   0.81366   1.21963   0.31300  Uiso   1.00
C6     C     0.70578   0.77209   1.12598   0.18686  Uani   1.00
H6     H     0.71498   0.73110   1.23687   0.22200  Uiso   1.00
C5     C     0.72976   0.77663   0.99590   0.14081  Uani   1.00
C4     C     0.71403   0.83343   0.85743   0.32347  Uani   1.00
H4     H     0.72979   0.84185   0.75230   0.38600  Uiso   1.00
C8     C     0.50000   0.18821   0.75000   0.05992  Uani   1.00
C9     C     0.50000   0.28469   0.75000   0.05992  Uani   1.00
C16    C     0.50000   0.75030   0.75000   0.06109  Uani   1.00
C17    C     0.50000   0.84669   0.75000   0.06109  Uani   1.00
C12    C     0.50000   0.46879   0.75000   0.07011  Uani   1.00
C13    C     0.50000   0.56626   0.75000   0.07011  Uani   1.00
loop_
_atom_site_aniso_label
_atom_site_aniso_U_11
_atom_site_aniso_U_22
_atom_site_aniso_U_33
_atom_site_aniso_U_12
_atom_site_aniso_U_13
_atom_site_aniso_U_23
Zr1       0.07700   0.00780   0.01520   0.00020   0.00270  -0.00030
O1        0.15500   0.00700   0.02200   0.00500   0.01600   0.00370
O4        0.12900   0.00300   0.04900   0.00500   0.01400   0.00370
C15       0.11600   0.01400   0.08800  -0.00900   0.02400  -0.00200
O2        0.08300   0.03100   0.04700   0.00100   0.01400   0.00800
O5        0.09500   0.01400   0.03900   0.00600   0.00400   0.00370
C11       0.14900   0.00400   0.11100  -0.00200   0.04300   0.00500
C1        0.05700   0.05100   0.03000   0.00700   0.00200   0.00500
C14       0.12500   0.02100   0.10500  -0.00900   0.03200  -0.00800
O3        0.11700   0.03500   0.03300   0.02500  -0.00000   0.00000
C10       0.10700   0.02600   0.11900  -0.00100   0.05000   0.00300
C2        0.20000   0.08600   0.04800   0.05100   0.01600   0.04200
C3        0.22000   0.21700   0.09900   0.15000   0.08300   0.10000
C7        0.36000   0.32000   0.12400   0.23000   0.10500   0.15700
C6        0.22000   0.26000   0.10000   0.17000   0.07700   0.10200
C5        0.15000   0.17000   0.10900   0.08200   0.04300   0.07700
C4        0.52000   0.37000   0.12200   0.32000   0.16000   0.16000
C8        0.11800   0.00100   0.05800   0.00000   0.01400   0.00000
C9        0.11800   0.00100   0.05800   0.00000   0.01400   0.00000
C16       0.13800   0.00500   0.03800   0.00000   0.01500   0.00000
C17       0.13800   0.00500   0.03800   0.00000   0.01500   0.00000
C12       0.14100   0.00300   0.06800   0.00000   0.02700   0.00000
C13       0.14100   0.00300   0.06800   0.00000   0.02700   0.00000
loop_
_geom_bond_atom_site_label_1
_geom_bond_atom_site_label_2
_geom_bond_distance
_geom_bond_site_symmetry_2
_ccdc_geom_bond_type
Zr1    O1      2.208   .     S
Zr1    O4      2.145   1_565 S
Zr1    O2      2.115   .     S
Zr1    O5      2.125   .     S
Zr1    O3      2.143   4_574 S
Zr1    O1      2.091   3_676 S
Zr1    O1      2.183   4_575 S
O1     Zr1     2.091   3_676 S
O1     Zr1     2.183   4_574 S
O4     C8      1.303   .     A
O4     Zr1     2.145   1_545 S
C15    C14     1.416   .     A
C15    C16     1.411   .     A
C15    H15     1.083   .     S
O2     C1      1.290   .     A
O5     C17     1.291   .     A
C11    C12     1.417   .     A
C11    C10     1.416   .     A
C11    H11     1.080   .     S
C1     O3      1.298   .     A
C1     C2      1.519   .     S
C14    C13     1.418   .     A
C14    H14     1.080   .     S
O3     Zr1     2.143   4_575 S
C10    C9      1.411   .     A
C10    H10     1.083   .     S
C2     C7      1.408   .     A
C2     C3      1.410   .     A
C3     C4      1.411   .     A
C3     H3      1.083   .     S
C7     C6      1.415   .     A
C7     H7      1.083   .     S
C6     C5      1.423   .     A
C6     H6      1.077   .     S
C5     C4      1.419   .     A
C5     C5      1.546   7_667 S
C4     H4      1.077   .     S
C8     O4      1.303   2_656 A
C8     C9      1.524   .     S
C9     C10     1.411   2_656 A
C16    C15     1.411   2_656 A
C16    C17     1.523   .     S
C17    O5      1.291   2_656 A
C12    C11     1.417   2_656 A
C12    C13     1.540   .     S
C13    C14     1.418   2_656 A
