data_MOF-520
_audit_creation_date              2024-01-10
_audit_creation_method            'Materials Studio'
_symmetry_space_group_name_H-M    'P42212'
_symmetry_Int_Tables_number       94
_symmetry_cell_setting            tetragonal
loop_
_symmetry_equiv_pos_as_xyz
  x,y,z
  -x,-y,z
  -y+1/2,x+1/2,z+1/2
  y+1/2,-x+1/2,z+1/2
  -x+1/2,y+1/2,-z+1/2
  x+1/2,-y+1/2,-z+1/2
  y,x,-z
  -y,-x,-z
_cell_length_a                    18.5778
_cell_length_b                    18.5778
_cell_length_c                    37.2977
_cell_angle_alpha                 90.0000
_cell_angle_beta                  90.0000
_cell_angle_gamma                 90.0000
loop_
_atom_site_label
_atom_site_type_symbol
_atom_site_fract_x
_atom_site_fract_y
_atom_site_fract_z
_atom_site_U_iso_or_equiv
_atom_site_adp_type
_atom_site_occupancy
Al2    Al    0.38560   0.39929   0.57547   0.03430  Uani   1.00
O8     O     0.43845   0.47377   0.57625   0.03557  Uani   1.00
H8     H     0.43311   0.50259   0.55832   0.04300  Uiso   1.00
O7     O     0.39990   0.37690   0.53146   0.03547  Uani   1.00
H7     H     0.44351   0.38317   0.52415   0.04300  Uiso   1.00
O5     O    -0.04374   0.15965   0.91040   0.03823  Uani   1.00
O6     O     0.03923   0.08574   0.88761   0.04393  Uani   1.00
O2     O     0.44293   0.48055   0.64401   0.04823  Uani   1.00
O3     O     0.16585   0.82297   0.91547   0.04020  Uani   1.00
O4     O     0.18792   0.77255   0.96891   0.04270  Uani   1.00
O00B   O     0.30807   0.44977   0.56395   0.04533  Uani   1.00
O1     O     0.35498   0.41357   0.62082   0.04460  Uani   1.00
O00D   O     0.26985   0.39896   0.51263   0.04487  Uani   1.00
C25    C     0.01622   0.14887   0.89440   0.03827  Uani   1.00
C24    C     0.05960   0.21133   0.88164   0.04690  Uani   1.00
C18    C     0.18927   0.77101   0.93437   0.03767  Uani   1.00
C17    C     0.21358   0.70616   0.91387   0.04223  Uani   1.00
C1     C     0.38382   0.44642   0.64745   0.04153  Uani   1.00
C26    C     0.12424   0.20018   0.86263   0.06033  Uani   1.00
H26    H     0.14490   0.14629   0.85851   0.07200  Uiso   1.00
C2     C     0.34891   0.44608   0.68385   0.04790  Uani   1.00
C15    C     0.22677   0.64864   0.85507   0.05303  Uani   1.00
H15    H     0.22588   0.65464   0.82622   0.06400  Uiso   1.00
C27    C     0.16279   0.25828   0.84825   0.07133  Uani   1.00
H27    H     0.21266   0.24777   0.83417   0.08600  Uiso   1.00
C22    C     0.07330   0.34033   0.87158   0.06300  Uani   1.00
H22    H     0.05199   0.39414   0.87501   0.07500  Uiso   1.00
C16    C     0.21897   0.71040   0.87616   0.04747  Uani   1.00
H16    H     0.21338   0.76153   0.86251   0.05700  Uiso   1.00
C21    C     0.13796   0.32918   0.85258   0.06567  Uani   1.00
C28    C     0.26261   0.44319   0.53854   0.05633  Uani   1.00
H28    H     0.21538   0.47715   0.53892   0.06700  Uiso   1.00
C23    C     0.03464   0.28223   0.88590   0.05543  Uani   1.00
H23    H    -0.01538   0.29285   0.89987   0.06700  Uiso   1.00
C12    C     0.18036   0.39158   0.83853   0.07000  Uani   1.00
C14    C     0.23034   0.58015   0.87087   0.05780  Uani   1.00
C7     C     0.28292   0.41124   0.69045   0.05767  Uani   1.00
H7A    H     0.25526   0.38362   0.66892   0.06900  Uiso   1.00
C4     C     0.35127   0.48224   0.74716   0.07083  Uani   1.00
H4     H     0.37995   0.50917   0.76856   0.08500  Uiso   1.00
C19    C     0.22155   0.63837   0.93001   0.06010  Uani   1.00
H19    H     0.21773   0.63289   0.95885   0.07200  Uiso   1.00
C3     C     0.38234   0.48159   0.71285   0.05893  Uani   1.00
H3     H     0.43312   0.50915   0.70912   0.07100  Uiso   1.00
C9     C     0.25892   0.51088   0.81332   0.06933  Uani   1.00
H9     H     0.28838   0.55714   0.80361   0.08300  Uiso   1.00
C5     C     0.28514   0.44780   0.75394   0.06517  Uani   1.00
C10    C     0.22745   0.51350   0.84791   0.06690  Uani   1.00
C11    C     0.18837   0.45336   0.85986   0.07400  Uani   1.00
H11    H     0.16290   0.45476   0.88594   0.08900  Uiso   1.00
C6     C     0.25152   0.41213   0.72492   0.06333  Uani   1.00
H6     H     0.20014   0.38572   0.72864   0.07600  Uiso   1.00
C20    C     0.23023   0.57621   0.90879   0.07053  Uani   1.00
H20    H     0.23475   0.52473   0.92217   0.08500  Uiso   1.00
C8     C     0.25180   0.44952   0.79096   0.06350  Uani   1.00
C13    C     0.21256   0.38998   0.80423   0.07533  Uani   1.00
H13    H     0.20676   0.34223   0.78785   0.09000  Uiso   1.00
Al3    Al    0.50000   0.50000   0.60733   0.03580  Uani   1.00
Al1    Al    0.34168   0.34168   0.50000   0.03540  Uani   1.00
loop_
_atom_site_aniso_label
_atom_site_aniso_U_11
_atom_site_aniso_U_22
_atom_site_aniso_U_33
_atom_site_aniso_U_12
_atom_site_aniso_U_13
_atom_site_aniso_U_23
Al2       0.04590   0.03630   0.02070  -0.00100   0.00110   0.00150
O8        0.05170   0.03400   0.02100  -0.00170   0.00060   0.00400
O7        0.04240   0.04250   0.02150  -0.00300  -0.00330   0.00090
O5        0.05440   0.03500   0.02530   0.00030   0.00740   0.00270
O6        0.05490   0.03870   0.03820   0.00340   0.00990   0.00500
O2        0.06700   0.05330   0.02440  -0.01240   0.00590  -0.00100
O3        0.04970   0.04180   0.02910   0.00480   0.00150  -0.00290
O4        0.05980   0.04580   0.02250   0.01130  -0.00420  -0.00360
O00B      0.05020   0.04410   0.04170   0.00410   0.00030   0.00420
O1        0.05920   0.04520   0.02940  -0.00550   0.00910  -0.00480
O00D      0.04200   0.05890   0.03370   0.00430   0.00000   0.00370
C25       0.05900   0.03500   0.02080  -0.00030   0.00480   0.00070
C24       0.07100   0.03970   0.03000  -0.00470   0.01660  -0.00150
C18       0.04500   0.04330   0.02470   0.00450  -0.00040  -0.00290
C17       0.05800   0.04140   0.02730   0.00280   0.00410  -0.00390
C1        0.06300   0.03300   0.02860  -0.00680   0.00880  -0.00370
C26       0.08100   0.04100   0.05900  -0.00600   0.03200  -0.00500
C2        0.07100   0.04080   0.03190  -0.01430   0.01550  -0.00820
C15       0.08400   0.04800   0.02710  -0.00930   0.01380  -0.00510
C27       0.09700   0.04900   0.06800  -0.01500   0.04900  -0.00900
C22       0.09700   0.04000   0.05200  -0.00800   0.03700  -0.00410
C16       0.07200   0.04220   0.02820  -0.00080   0.00610  -0.00490
C21       0.10200   0.04200   0.05300  -0.02000   0.04200  -0.01210
C28       0.04300   0.07000   0.05600   0.00910  -0.00860  -0.01330
C23       0.08300   0.03920   0.04410  -0.00270   0.02730   0.00020
C12       0.11400   0.04800   0.04800  -0.01800   0.04100  -0.00700
C14       0.09400   0.04400   0.03540  -0.01500   0.02390  -0.01040
C7        0.08100   0.05400   0.03800  -0.02300   0.01880  -0.01510
C4        0.11500   0.06300   0.03450  -0.03900   0.03000  -0.01720
C19       0.10800   0.04600   0.02630   0.00300   0.01630  -0.00190
C3        0.08500   0.05900   0.03280  -0.02600   0.01920  -0.01170
C9        0.11200   0.05300   0.04300  -0.03100   0.03600  -0.01470
C5        0.11000   0.04700   0.03850  -0.03200   0.03400  -0.01680
C10       0.11100   0.04900   0.04070  -0.02400   0.03300  -0.01420
C11       0.12500   0.05000   0.04700  -0.02500   0.04800  -0.01190
C6        0.08700   0.05600   0.04700  -0.03000   0.02400  -0.01500
C20       0.13500   0.03800   0.03860  -0.00900   0.02900  -0.00180
C8        0.10100   0.05000   0.03950  -0.02500   0.03300  -0.01330
C13       0.12200   0.05000   0.05400  -0.03200   0.04700  -0.02250
Al3       0.05140   0.03450   0.02150  -0.00420   0.00000   0.00000
Al1       0.04380   0.04380   0.01860  -0.00470  -0.00390   0.00390
loop_
_geom_bond_atom_site_label_1
_geom_bond_atom_site_label_2
_geom_bond_distance
_geom_bond_site_symmetry_2
_ccdc_geom_bond_type
Al2    O8      1.697   .     S
Al2    O7      1.714   .     S
Al2    O00B    1.772   .     S
Al2    O1      1.804   .     S
Al2    O5      1.789   6_556 S
Al2    O3      1.743   5_546 S
O8     Al3     1.699   .     S
O8     H8      0.863   .     S
O7     Al1     1.725   .     S
O7     H7      0.863   .     S
O5     C25     1.280   .     A
O5     Al2     1.789   6_456 S
O6     C25     1.274   .     A
O6     Al3     1.762   5_546 S
O2     Al3     1.768   .     S
O2     C1      1.274   .     A
O3     C18     1.272   .     A
O3     Al2     1.743   5_556 S
O4     C18     1.289   .     A
O4     Al1     1.816   3     S
O00B   C28     1.275   .     A
O1     C1      1.283   .     A
O00D   Al1     1.771   .     S
O00D   C28     1.275   .     A
C25    C24     1.491   .     S
C24    C26     1.410   .     A
C24    C23     1.406   .     A
C18    C17     1.497   .     S
C17    C16     1.412   .     A
C17    C19     1.404   .     A
C1     C2      1.505   .     S
C26    H26     1.083   .     S
C26    C27     1.402   .     A
C2     C7      1.408   .     A
C2     C3      1.411   .     A
C15    H15     1.082   .     S
C15    C16     1.399   .     A
C15    C14     1.404   .     A
C27    H27     1.083   .     S
C27    C21     1.405   .     A
C22    H22     1.083   .     S
C22    C21     1.410   .     A
C22    C23     1.402   .     A
C16    H16     1.083   .     S
C21    C12     1.496   .     S
C28    H28     1.081   .     S
C23    H23     1.083   .     S
C12    C11     1.404   .     A
C12    C13     1.412   .     A
C14    C10     1.506   .     S
C14    C20     1.416   .     A
C7     H7A     1.083   .     S
C7     C6      1.412   .     A
C4     H4      1.082   .     S
C4     C3      1.404   .     A
C4     C5      1.408   .     A
C19    H19     1.083   .     S
C19    C20     1.409   .     A
C3     H3      1.082   .     S
C9     H9      1.081   .     S
C9     C10     1.417   .     A
C9     C8      1.419   .     A
C5     C6      1.414   .     A
C5     C8      1.514   .     S
C10    C11     1.405   .     A
C11    H11     1.082   .     S
C6     H6      1.082   .     S
C20    H20     1.082   .     S
C8     C13     1.414   .     A
C13    H13     1.082   .     S
Al3    O8      1.699   2_665 S
Al3    O2      1.768   2_665 S
Al3    O6      1.762   5_556 S
Al3    O6      1.762   6_556 S
Al1    O7      1.725   7_556 S
Al1    O00D    1.771   7_556 S
Al1    O4      1.816   4_454 S
Al1    O4      1.816   5_546 S
