data_MOF-808(Ce)
_audit_creation_date              2024-01-10
_audit_creation_method            'Materials Studio'
_symmetry_space_group_name_H-M    'FD-3M'
_symmetry_Int_Tables_number       227
_symmetry_cell_setting            cubic
loop_
_symmetry_equiv_pos_as_xyz
  x,y,z
  -x,-y+1/2,z+1/2
  -x+1/2,y+1/2,-z
  x+1/2,-y,-z+1/2
  z,x,y
  z+1/2,-x,-y+1/2
  -z,-x+1/2,y+1/2
  -z+1/2,x+1/2,-y
  y,z,x
  -y+1/2,z+1/2,-x
  y+1/2,-z,-x+1/2
  -y,-z+1/2,x+1/2
  y+3/4,x+1/4,-z+3/4
  -y+1/4,-x+1/4,-z+1/4
  y+1/4,-x+3/4,z+3/4
  -y+3/4,x+3/4,z+1/4
  x+3/4,z+1/4,-y+3/4
  -x+3/4,z+3/4,y+1/4
  -x+1/4,-z+1/4,-y+1/4
  x+1/4,-z+3/4,y+3/4
  z+3/4,y+1/4,-x+3/4
  z+1/4,-y+3/4,x+3/4
  -z+3/4,y+3/4,x+1/4
  -z+1/4,-y+1/4,-x+1/4
  -x+1/4,-y+1/4,-z+1/4
  x+1/4,y+3/4,-z+3/4
  x+3/4,-y+3/4,z+1/4
  -x+3/4,y+1/4,z+3/4
  -z+1/4,-x+1/4,-y+1/4
  -z+3/4,x+1/4,y+3/4
  z+1/4,x+3/4,-y+3/4
  z+3/4,-x+3/4,y+1/4
  -y+1/4,-z+1/4,-x+1/4
  y+3/4,-z+3/4,x+1/4
  -y+3/4,z+1/4,x+3/4
  y+1/4,z+3/4,-x+3/4
  -y+1/2,-x,z+1/2
  y,x,z
  -y,x+1/2,-z+1/2
  y+1/2,-x+1/2,-z
  -x+1/2,-z,y+1/2
  x+1/2,-z+1/2,-y
  x,z,y
  -x,z+1/2,-y+1/2
  -z+1/2,-y,x+1/2
  -z,y+1/2,-x+1/2
  z+1/2,-y+1/2,-x
  z,y,x
  x,y+1/2,z+1/2
  -x,-y,z
  -x+1/2,y,-z+1/2
  x+1/2,-y+1/2,-z
  z,x+1/2,y+1/2
  z+1/2,-x+1/2,-y
  -z,-x,y
  -z+1/2,x,-y+1/2
  y,z+1/2,x+1/2
  -y+1/2,z,-x+1/2
  y+1/2,-z+1/2,-x
  -y,-z,x
  y+3/4,x+3/4,-z+1/4
  -y+1/4,-x+3/4,-z+3/4
  y+1/4,-x+1/4,z+1/4
  -y+3/4,x+1/4,z+3/4
  x+3/4,z+3/4,-y+1/4
  -x+3/4,z+1/4,y+3/4
  -x+1/4,-z+3/4,-y+3/4
  x+1/4,-z+1/4,y+1/4
  z+3/4,y+3/4,-x+1/4
  z+1/4,-y+1/4,x+1/4
  -z+3/4,y+1/4,x+3/4
  -z+1/4,-y+3/4,-x+3/4
  -x+1/4,-y+3/4,-z+3/4
  x+1/4,y+1/4,-z+1/4
  x+3/4,-y+1/4,z+3/4
  -x+3/4,y+3/4,z+1/4
  -z+1/4,-x+3/4,-y+3/4
  -z+3/4,x+3/4,y+1/4
  z+1/4,x+1/4,-y+1/4
  z+3/4,-x+1/4,y+3/4
  -y+1/4,-z+3/4,-x+3/4
  y+3/4,-z+1/4,x+3/4
  -y+3/4,z+3/4,x+1/4
  y+1/4,z+1/4,-x+1/4
  -y+1/2,-x+1/2,z
  y,x+1/2,z+1/2
  -y,x,-z
  y+1/2,-x,-z+1/2
  -x+1/2,-z+1/2,y
  x+1/2,-z,-y+1/2
  x,z+1/2,y+1/2
  -x,z,-y
  -z+1/2,-y+1/2,x
  -z,y,-x
  z+1/2,-y,-x+1/2
  z,y+1/2,x+1/2
  x+1/2,y,z+1/2
  -x+1/2,-y+1/2,z
  -x,y+1/2,-z+1/2
  x,-y,-z
  z+1/2,x,y+1/2
  z,-x,-y
  -z+1/2,-x+1/2,y
  -z,x+1/2,-y+1/2
  y+1/2,z,x+1/2
  -y,z+1/2,-x+1/2
  y,-z,-x
  -y+1/2,-z+1/2,x
  y+1/4,x+1/4,-z+1/4
  -y+3/4,-x+1/4,-z+3/4
  y+3/4,-x+3/4,z+1/4
  -y+1/4,x+3/4,z+3/4
  x+1/4,z+1/4,-y+1/4
  -x+1/4,z+3/4,y+3/4
  -x+3/4,-z+1/4,-y+3/4
  x+3/4,-z+3/4,y+1/4
  z+1/4,y+1/4,-x+1/4
  z+3/4,-y+3/4,x+1/4
  -z+1/4,y+3/4,x+3/4
  -z+3/4,-y+1/4,-x+3/4
  -x+3/4,-y+1/4,-z+3/4
  x+3/4,y+3/4,-z+1/4
  x+1/4,-y+3/4,z+3/4
  -x+1/4,y+1/4,z+1/4
  -z+3/4,-x+1/4,-y+3/4
  -z+1/4,x+1/4,y+1/4
  z+3/4,x+3/4,-y+1/4
  z+1/4,-x+3/4,y+3/4
  -y+3/4,-z+1/4,-x+3/4
  y+1/4,-z+3/4,x+3/4
  -y+1/4,z+1/4,x+1/4
  y+3/4,z+3/4,-x+1/4
  -y,-x,z
  y+1/2,x,z+1/2
  -y+1/2,x+1/2,-z
  y,-x+1/2,-z+1/2
  -x,-z,y
  x,-z+1/2,-y+1/2
  x+1/2,z,y+1/2
  -x+1/2,z+1/2,-y
  -z,-y,x
  -z+1/2,y+1/2,-x
  z,-y+1/2,-x+1/2
  z+1/2,y,x+1/2
  x+1/2,y+1/2,z
  -x+1/2,-y,z+1/2
  -x,y,-z
  x,-y+1/2,-z+1/2
  z+1/2,x+1/2,y
  z,-x+1/2,-y+1/2
  -z+1/2,-x,y+1/2
  -z,x,-y
  y+1/2,z+1/2,x
  -y,z,-x
  y,-z+1/2,-x+1/2
  -y+1/2,-z,x+1/2
  y+1/4,x+3/4,-z+3/4
  -y+3/4,-x+3/4,-z+1/4
  y+3/4,-x+1/4,z+3/4
  -y+1/4,x+1/4,z+1/4
  x+1/4,z+3/4,-y+3/4
  -x+1/4,z+1/4,y+1/4
  -x+3/4,-z+3/4,-y+1/4
  x+3/4,-z+1/4,y+3/4
  z+1/4,y+3/4,-x+3/4
  z+3/4,-y+1/4,x+3/4
  -z+1/4,y+1/4,x+1/4
  -z+3/4,-y+3/4,-x+1/4
  -x+3/4,-y+3/4,-z+1/4
  x+3/4,y+1/4,-z+3/4
  x+1/4,-y+1/4,z+1/4
  -x+1/4,y+3/4,z+3/4
  -z+3/4,-x+3/4,-y+1/4
  -z+1/4,x+3/4,y+3/4
  z+3/4,x+1/4,-y+3/4
  z+1/4,-x+1/4,y+1/4
  -y+3/4,-z+3/4,-x+1/4
  y+1/4,-z+1/4,x+1/4
  -y+1/4,z+3/4,x+3/4
  y+3/4,z+1/4,-x+3/4
  -y,-x+1/2,z+1/2
  y+1/2,x+1/2,z
  -y+1/2,x,-z+1/2
  y,-x,-z
  -x,-z+1/2,y+1/2
  x,-z,-y
  x+1/2,z+1/2,y
  -x+1/2,z,-y+1/2
  -z,-y+1/2,x+1/2
  -z+1/2,y,-x+1/2
  z,-y,-x
  z+1/2,y+1/2,x
_cell_length_a                    36.4514
_cell_length_b                    36.4514
_cell_length_c                    36.4514
_cell_angle_alpha                 90.0000
_cell_angle_beta                  90.0000
_cell_angle_gamma                 90.0000
loop_
_atom_site_label
_atom_site_type_symbol
_atom_site_fract_x
_atom_site_fract_y
_atom_site_fract_z
_atom_site_U_iso_or_equiv
_atom_site_adp_type
_atom_site_occupancy
O1     O     0.43595   0.46646   0.60957   0.02522  Uani   1.00
O6A    O     0.40191   0.47097   0.68918   0.06206  Uani   0.83
Zr1    Ce    0.42012   0.42012   0.65441   0.02052  Uani   1.00
O3     O     0.38433   0.38433   0.69060   0.01973  Uani   0.50
H3A    H     0.38877   0.38877   0.71699   0.02200  Uiso   0.50
O5     O     0.39367   0.39367   0.60633   0.01937  Uani   0.50
H5     H     0.40904   0.40904   0.59096   0.02200  Uiso   0.50
C2     C     0.43656   0.51519   0.56344   0.02655  Uani   1.00
C1     C     0.41941   0.48103   0.58059   0.02361  Uani   1.00
C3     C     0.46795   0.53205   0.57917   0.02798  Uani   1.00
H3     H     0.47866   0.52134   0.60459   0.03100  Uiso   1.00
C4     C     0.37500   0.46761   0.71761   0.11839  Uani   0.83
H4     H     0.37500   0.48913   0.73913   0.13200  Uiso   0.83
loop_
_atom_site_aniso_label
_atom_site_aniso_U_11
_atom_site_aniso_U_22
_atom_site_aniso_U_33
_atom_site_aniso_U_12
_atom_site_aniso_U_13
_atom_site_aniso_U_23
O1        0.02561   0.02594   0.02411  -0.00581  -0.00355   0.00850
O6A       0.12269   0.03659   0.02691   0.01076   0.00000  -0.00753
Zr1       0.01980   0.01980   0.02196  -0.00301   0.00244   0.00244
O3        0.02045   0.02045   0.01830  -0.00969  -0.00431  -0.00431
O5        0.01937   0.01937   0.01937  -0.00323   0.00323   0.00323
C2        0.02583   0.02798   0.02583  -0.00764  -0.00431   0.00764
C1        0.02088   0.02906   0.02088  -0.00484   0.00215   0.00484
C3        0.03121   0.03121   0.02153  -0.00323  -0.00667   0.00667
C4        0.16144   0.09686   0.09686  -0.02368   0.02368  -0.04520
loop_
_geom_bond_atom_site_label_1
_geom_bond_atom_site_label_2
_geom_bond_distance
_geom_bond_site_symmetry_2
_ccdc_geom_bond_type
O1     Zr1     2.420   .     S
O1     C1      1.327   .     A
O6A    Zr1     2.342   .     S
O6A    C4      1.432   .     S
Zr1    O1      2.420   38    S
Zr1    O6A     2.342   38    S
Zr1    O5      2.221   .     S
Zr1    O3      2.269   .     S
Zr1    O3      2.243   18_545 S
Zr1    O3      2.243   32_455 S
O3     H3A     0.989   .     S
O3     Zr1     2.243   18_545 S
O3     Zr1     2.243   32_455 S
O5     Zr1     2.221   94_656 S
O5     Zr1     2.221   107_566 S
O5     H5      0.970   .     S
C2     C3      1.420   .     A
C2     C3      1.420   55_665 A
C2     C1      1.527   .     S
C1     O1      1.327   94_656 A
C3     C2      1.420   133_665 A
C3     H3      1.079   .     S
C4     O6A     1.432   18_545 S
C4     H4      1.109   .     S
