data_MOF-801
_audit_creation_date              2024-01-10
_audit_creation_method            'Materials Studio'
_symmetry_space_group_name_H-M    'PN-3'
_symmetry_Int_Tables_number       201
_symmetry_cell_setting            cubic
loop_
_symmetry_equiv_pos_as_xyz
  x,y,z
  -x,-y,z
  -x,y,-z
  x,-y,-z
  z,x,y
  z,-x,-y
  -z,-x,y
  -z,x,-y
  y,z,x
  -y,z,-x
  y,-z,-x
  -y,-z,x
  -x+1/2,-y+1/2,-z+1/2
  x+1/2,y+1/2,-z+1/2
  x+1/2,-y+1/2,z+1/2
  -x+1/2,y+1/2,z+1/2
  -z+1/2,-x+1/2,-y+1/2
  -z+1/2,x+1/2,y+1/2
  z+1/2,x+1/2,-y+1/2
  z+1/2,-x+1/2,y+1/2
  -y+1/2,-z+1/2,-x+1/2
  y+1/2,-z+1/2,x+1/2
  -y+1/2,z+1/2,x+1/2
  y+1/2,z+1/2,-x+1/2
_cell_length_a                    17.8348
_cell_length_b                    17.8348
_cell_length_c                    17.8348
_cell_angle_alpha                 90.0000
_cell_angle_beta                  90.0000
_cell_angle_gamma                 90.0000
loop_
_atom_site_label
_atom_site_type_symbol
_atom_site_fract_x
_atom_site_fract_y
_atom_site_fract_z
_atom_site_U_iso_or_equiv
_atom_site_adp_type
_atom_site_occupancy
Zr1    Zr   -0.11752   0.25976  -0.24009   0.03850  Uani   1.00
O2     O    -0.04913   0.16157  -0.24507   0.08567  Uani   1.00
O3     O    -0.06328   0.36689  -0.23314   0.08333  Uani   1.00
O4     O    -0.06337   0.25900  -0.13254   0.07867  Uani   1.00
O5     O    -0.04955   0.26818  -0.33805   0.08700  Uani   1.00
C6     C    -0.09056   0.43484  -0.23105   0.08700  Uani   1.00
C7     C    -0.03799   0.50173  -0.22887   0.14033  Uani   1.00
C8     C    -0.06467   0.09047  -0.25282   0.08233  Uani   1.00
C9     C     0.00198   0.03793  -0.25394   0.12500  Uani   1.00
O10    O    -0.18228   0.32816  -0.30810   0.04233  Uani   0.50
H11    H    -0.06386   0.44332   0.22888   0.00000  Uiso   1.00
H12    H    -0.05703   0.06359   0.25317   0.00000  Uiso   1.00
O13    O    -0.18275   0.18275  -0.18275   0.04200  Uani   0.50
H14    H    -0.15075   0.15075  -0.15075   0.04200  Uani   0.50
loop_
_atom_site_aniso_label
_atom_site_aniso_U_11
_atom_site_aniso_U_22
_atom_site_aniso_U_33
_atom_site_aniso_U_12
_atom_site_aniso_U_13
_atom_site_aniso_U_23
Zr1       0.02860   0.04350   0.04340  -0.00060  -0.00120  -0.00110
O2        0.06500   0.07300   0.11900   0.02900   0.00000   0.00300
O3        0.06300   0.07300   0.11400  -0.02500   0.00100  -0.00700
O4        0.06200   0.10800   0.06600   0.00400  -0.02600  -0.00500
O5        0.06800   0.11300   0.08000  -0.00200   0.03200   0.00100
C6        0.06000   0.06300   0.13800  -0.01600   0.00500  -0.00800
C7        0.07500   0.10000   0.24600  -0.03700   0.01000  -0.01000
C8        0.05400   0.06700   0.12600   0.01900   0.00800   0.01000
C9        0.09400   0.07700   0.20400   0.03300   0.01700  -0.00500
O10       0.04400   0.04000   0.04300  -0.01100   0.01000   0.01100
O13       0.04200   0.04200   0.04200   0.01100  -0.01100   0.01100
H14       0.04200   0.04200   0.04200   0.01100  -0.01100   0.01100
loop_
_geom_bond_atom_site_label_1
_geom_bond_atom_site_label_2
_geom_bond_distance
_geom_bond_site_symmetry_2
_ccdc_geom_bond_type
Zr1    O2      2.136   .     S
Zr1    O3      2.145   .     S
Zr1    O4      2.148   .     S
Zr1    O5      2.132   .     S
Zr1    O13     2.070   .     S
Zr1    O10     2.072   .     S
Zr1    O10     2.079   24_454 S
Zr1    O10     2.076   18_454 S
O2     C8      1.305   .     A
O3     C6      1.306   .     A
O4     C8      1.308   12    A
O5     C6      1.303   24_454 A
C6     C7      1.518   .     S
C6     O5      1.303   18_454 A
C7     C7      1.356   2_565 D
C7     H11     1.083   4_565 S
C8     C9      1.514   .     S
C8     O4      1.308   6     A
C9     C9      1.355   2     D
C9     H12     1.083   3     S
O10    Zr1     2.079   18_454 S
O10    Zr1     2.076   24_454 S
H11    C7      1.083   4_565 S
H12    C9      1.083   3     S
O13    Zr1     2.070   6     S
O13    Zr1     2.070   12    S
O13    H14     0.988   .     S
