data_MOF-FA
_audit_creation_date              2024-01-10
_audit_creation_method            'Materials Studio'
_symmetry_space_group_name_H-M    'CMCM'
_symmetry_Int_Tables_number       63
_symmetry_cell_setting            orthorhombic
loop_
_symmetry_equiv_pos_as_xyz
  x,y,z
  -x,-y,z+1/2
  -x,y,-z+1/2
  x,-y,-z
  -x,-y,-z
  x,y,-z+1/2
  x,-y,z+1/2
  -x,y,z
  x+1/2,y+1/2,z
  -x+1/2,-y+1/2,z+1/2
  -x+1/2,y+1/2,-z+1/2
  x+1/2,-y+1/2,-z
  -x+1/2,-y+1/2,-z
  x+1/2,y+1/2,-z+1/2
  x+1/2,-y+1/2,z+1/2
  -x+1/2,y+1/2,z
_cell_length_a                    10.0497
_cell_length_b                    19.9849
_cell_length_c                    19.7712
_cell_angle_alpha                 90.0000
_cell_angle_beta                  90.0000
_cell_angle_gamma                 90.0000
loop_
_atom_site_label
_atom_site_type_symbol
_atom_site_fract_x
_atom_site_fract_y
_atom_site_fract_z
_atom_site_U_iso_or_equiv
_atom_site_adp_type
_atom_site_occupancy
O1     O     0.11385   0.97332   0.93822   0.02900  Uiso   0.35
O2     O     0.36499   1.16099   0.92766   0.05000  Uani   1.00
C3     C     0.28746   1.13900   0.88060   0.05967  Uani   1.00
O4     O     0.26944   0.97098   0.80679   0.04533  Uani   1.00
O5     O     0.26746   1.07694   0.86534   0.06233  Uani   1.00
Zr6    Zr    0.32628   0.98584   0.91169   0.03013  Uani   1.00
O7     O     0.31837   1.05602   0.99051   0.03340  Uiso   0.50
O8     O     0.23994   0.88992   0.89942   0.05367  Uani   1.00
O9     O     0.36562   1.17928   1.03174   0.04700  Uani   1.00
C10    C     0.27051   0.83234   0.92558   0.05500  Uani   1.00
H11    H     0.26522   0.67593   0.64905   0.00000  Uiso   1.00
H12    H     0.21037   0.79015   0.58953   0.00000  Uiso   1.00
C13    C     0.00000   0.98748   0.90825   0.03300  Uiso   0.35
H14    H     0.00000   1.01079   0.85890   0.04000  Uiso   0.35
C15    C     0.31807   0.99275   0.75000   0.08133  Uani   1.00
H16    H     0.39654   1.02887   0.75000   0.09700  Uiso   1.00
O17    O     0.50000   0.92682   0.90998   0.03000  Uiso   0.50
O18    O     0.50000   1.04674   0.90472   0.02600  Uiso   0.50
H19    H     0.50000   1.07068   0.86094   0.02800  Uiso   0.50
O20    O     0.50000   0.92682   0.90998   0.02900  Uiso   0.50
Zr21   Zr    0.50000   1.10992   0.99074   0.03377  Uani   1.00
loop_
_atom_site_aniso_label
_atom_site_aniso_U_11
_atom_site_aniso_U_22
_atom_site_aniso_U_33
_atom_site_aniso_U_12
_atom_site_aniso_U_13
_atom_site_aniso_U_23
O2        0.04500   0.04700   0.05800   0.01000  -0.00900   0.00400
C3        0.05600   0.05700   0.06600   0.01400  -0.02000   0.00900
O4        0.03200   0.06900   0.03500  -0.00100  -0.00300  -0.00300
O5        0.04300   0.06000   0.08400   0.00300  -0.03200   0.00600
Zr6       0.00940   0.04260   0.03840  -0.00042  -0.00058  -0.00363
O8        0.04600   0.05400   0.06100  -0.01700  -0.01500  -0.00900
O9        0.04000   0.04100   0.06000   0.01400   0.00200  -0.00700
C10       0.05800   0.04500   0.06200  -0.01800  -0.00100  -0.01200
C15       0.10100   0.08300   0.06000   0.00500   0.00000   0.00000
Zr21      0.02200   0.03470   0.04460   0.00000   0.00000  -0.00100
loop_
_geom_bond_atom_site_label_1
_geom_bond_atom_site_label_2
_geom_bond_distance
_geom_bond_site_symmetry_2
_ccdc_geom_bond_type
O1     C13     1.319   .     A
O1     Zr6     2.212   .     S
O2     C3      1.291   .     A
O2     Zr21    2.107   .     S
C3     O5      1.292   .     A
C3     H11     1.081   11_556 S
O4     C15     1.300   .     A
O4     Zr6     2.172   .     S
O5     Zr6     2.122   .     S
Zr6    O17     2.107   .     S
Zr6    O18     2.133   .     S
Zr6    O20     2.107   .     S
Zr6    O7      2.098   .     S
Zr6    O8      2.118   .     S
Zr6    O7      2.108   4_577 S
O7     Zr21    2.119   .     S
O7     Zr6     2.108   4_577 S
O8     C10     1.299   .     A
O9     Zr21    2.098   .     S
O9     C10     1.296   4_577 A
C10    O9      1.296   4_577 A
C10    H12     1.080   6_556 S
H11    C3      1.081   11_546 S
H12    C10     1.080   6_556 S
C13    O1      1.319   8     A
C13    H14     1.081   .     S
C15    O4      1.300   6_556 A
C15    H16     1.069   .     S
O17    Zr6     2.107   8_655 S
O17    Zr21    2.096   4_577 S
O18    Zr6     2.133   8_655 S
O18    Zr21    2.118   .     S
O18    H19     0.989   .     S
O20    Zr6     2.107   8_655 S
O20    Zr21    2.096   4_577 S
Zr21   O2      2.107   8_655 S
Zr21   O7      2.119   8_655 S
Zr21   O9      2.098   8_655 S
Zr21   O17     2.096   4_577 S
Zr21   O20     2.096   4_577 S
